[TITLE]
;;Project Title/Notes

[OPTIONS]
;;Option             Value
FLOW_UNITS           GPM
INFILTRATION         MODIFIED_GREEN_AMPT
FLOW_ROUTING         DYNWAVE
LINK_OFFSETS         ELEVATION
MIN_SLOPE            0
ALLOW_PONDING        YES
SKIP_STEADY_STATE    NO

START_DATE           10/01/2012
START_TIME           00:00:00
REPORT_START_DATE    10/01/2012
REPORT_START_TIME    00:00:00
END_DATE             10/01/2013
END_TIME             00:00:00
SWEEP_START          01/01
SWEEP_END            12/31
DRY_DAYS             0
REPORT_STEP          00:01:00
WET_STEP             00:01:00
DRY_STEP             00:05:00
ROUTING_STEP         3
RULE_STEP            00:00:00

INERTIAL_DAMPING     PARTIAL
NORMAL_FLOW_LIMITED  BOTH
FORCE_MAIN_EQUATION  H-W
VARIABLE_STEP        0.75
LENGTHENING_STEP     0
MIN_SURFAREA         0
MAX_TRIALS           8
HEAD_TOLERANCE       0.005
SYS_FLOW_TOL         5
LAT_FLOW_TOL         5
MINIMUM_STEP         0.5
THREADS              1

[EVAPORATION]
;;Data Source    Parameters
;;-------------- ----------------
CONSTANT         0.002083
DRY_ONLY         YES

[RAINGAGES]
;;Name           Format    Interval SCF      Source    
;;-------------- --------- -------- -------- ----------
pipeflow_1       INTENSITY 01:00    1.0      TIMESERIES pipeflow_1      
Raingage         INTENSITY 1:00     1        TIMESERIES updated_rainfall

[SUBCATCHMENTS]
;;Name           Rain Gage        Outlet           Area     %Imperv  Width    %Slope   CurbLen  SnowPack        
;;-------------- ---------------- ---------------- -------- -------- -------- -------- -------- ----------------
1                Raingage         J1               0.31     0        87.12    0.02     0                        
10               Raingage         J10              0.032    0        30.303   0.02     0                        
11               Raingage         J11              0.007    0        10.514   0.02     0                        
12               Raingage         J12              0.44     29.54    138.887  0.02     0                        
13               Raingage         J13              0.27     11.11    140.014  0.02     0                        
14               Raingage         J14              0.04     100      37.878   0.02     0                        
15               Raingage         J15              0.045    0        44.55    0.02     0                        
16               Raingage         J16              0.015    100      21.78    0.02     0                        
17               Raingage         J17              0.018    0        20.634   0.02     0                        
18               Raingage         J18              0.03     100      24.2     0.02     0                        
19               Raingage         J19              0.2      5        97.888   0.02     0                        
2                Raingage         J2               0.14     42.86    39.6     0.02     0                        
20               Raingage         J22              0.33     25       33       0.02     0                        
21               Raingage         J23              0.01     25       1        0.02     0                        
3                Raingage         J3               0.039    51.25    27.401   0.02     0                        
4                Raingage         J4               0.03     0        35.319   0.02     0                        
5                Raingage         J5               0.056    89.29    42.058   0.02     0                        
6                Raingage         J6               0.051    0        42.722   0.02     0                        
7                Raingage         J7               0.19     42.11    89.961   0.02     0                        
8                Raingage         J8               0.018    0        8.91     0.02     0                        
9                Raingage         J9               0.03     0        21.077   0.02     0                        

[SUBAREAS]
;;Subcatchment   N-Imperv   N-Perv     S-Imperv   S-Perv     PctZero    RouteTo    PctRouted 
;;-------------- ---------- ---------- ---------- ---------- ---------- ---------- ----------
1                0.01       0.1        0.05       0.05       0          OUTLET    
10               0.01       0.1        0.05       0.05       0          OUTLET    
11               0.01       0.1        0.05       0.05       0          OUTLET    
12               0.01       0.1        0.05       0.05       0          OUTLET    
13               0.01       0.1        0.05       0.05       0          OUTLET    
14               0.01       0.1        0.05       0.05       0          OUTLET    
15               0.01       0.1        0.05       0.05       0          OUTLET    
16               0.01       0.1        0.05       0.05       0          OUTLET    
17               0.01       0.1        0.05       0.05       0          OUTLET    
18               0.01       0.1        0.05       0.05       0          OUTLET    
19               0.01       0.1        0.05       0.05       0          OUTLET    
2                0.01       0.1        0.05       0.05       0          OUTLET    
20               0.01       0.1        0.05       0.05       0          OUTLET    
21               0.01       0.1        0.05       0.05       0          OUTLET    
3                0.01       0.1        0.05       0.05       0          OUTLET    
4                0.01       0.1        0.05       0.05       0          OUTLET    
5                0.01       0.1        0.05       0.05       0          OUTLET    
6                0.01       0.1        0.05       0.05       0          OUTLET    
7                0.01       0.1        0.05       0.05       0          OUTLET    
8                0.01       0.1        0.05       0.05       0          OUTLET    
9                0.01       0.1        0.05       0.05       0          OUTLET    

[INFILTRATION]
;;Subcatchment   Param1     Param2     Param3     Param4     Param5    
;;-------------- ---------- ---------- ---------- ---------- ----------
1                6.69       0.26       0.25       0          0         
10               6.69       0.26       0.25       0          0         
11               6.69       0.26       0.25       0          0         
12               6.69       0.26       0.25       0          0         
13               6.69       0.26       0.25       0          0         
14               6.69       0.26       0.25       0          0         
15               6.69       0.26       0.25       0          0         
16               6.69       0.26       0.25       0          0         
17               6.69       0.26       0.25       0          0         
18               6.69       0.26       0.25       0          0         
19               6.69       0.26       0.25       0          0         
2                6.69       0.26       0.25       0          0         
20               6.69       0.26       0.25       0          0         
21               6.69       0.26       0.25       0          0         
3                6.69       0.26       0.25       0          0         
4                6.69       0.26       0.25       0          0         
5                6.69       0.26       0.25       0          0         
6                6.69       0.26       0.25       0          0         
7                6.69       0.26       0.25       0          0         
8                6.69       0.26       0.25       0          0         
9                6.69       0.26       0.25       0          0         

[AQUIFERS]
;;Name           Por    WP     FC     Ksat   Kslope Tslope ETu    ETs    Seep   Ebot   Egw    Umc    ETupat 
;;-------------- ------ ------ ------ ------ ------ ------ ------ ------ ------ ------ ------ ------ ------
Aquifer          0.65   0.2    0.30   0.75   10.0   15.0   0.35   2.5    0      -47.9  1      0.30         

[GROUNDWATER]
;;Subcatchment   Aquifer          Node             Esurf  A1     B1     A2     B2     A3     Dsw    Egwt   Ebot   Wgr    Umc   
;;-------------- ---------------- ---------------- ------ ------ ------ ------ ------ ------ ------ ------ ------ ------ ------
1                Aquifer          J2               4.4    0      0      0      0      0      0      *      *      1      *     
10               Aquifer          J11              4.4    0      0      0      0      0      0      *      *      1      *     
11               Aquifer          J12              4.4    0      0      0      0      0      0      *      *      1      *     
12               Aquifer          J13              4.4    0      0      0      0      0      0      *      *      1      *     
13               Aquifer          J14              4.4    0      0      0      0      0      0      *      *      1      *     
14               Aquifer          J15              4.4    0      0      0      0      0      0      *      *      1      *     
15               Aquifer          J16              4.4    0      0      0      0      0      0      *      *      1      *     
16               Aquifer          J17              4.4    0      0      0      0      0      0      *      *      1      *     
17               Aquifer          J18              4.4    0      0      0      0      0      0      *      *      1      *     
18               Aquifer          J19              4.4    0      0      0      0      0      0      *      *      1      *     
19               Aquifer          J20              4.4    0      0      0      0      0      0      *      *      1      *     
2                Aquifer          J3               4.4    0      0      0      0      0      0      *      *      1      *     
20               Aquifer          J23              4.4    0      0      0      0      0      0      *      *      1      *     
21               Aquifer          J24              4.4    0      0      0      0      0      0      *      *      1      *     
3                Aquifer          J4               4.4    0      0      0      0      0      0      *      *      1      *     
4                Aquifer          J5               4.4    0      0      0      0      0      0      *      *      1      *     
5                Aquifer          J6               4.4    0      0      0      0      0      0      *      *      1      *     
6                Aquifer          J7               4.4    0      0      0      0      0      0      *      *      1      *     
7                Aquifer          J8               4.4    0      0      0      0      0      0      *      *      1      *     
8                Aquifer          J21              4.4    0      0      0      0      0      0      *      *      1      *     
9                Aquifer          J10              4.4    0      0      0      0      0      0      *      *      1      *     

[JUNCTIONS]
;;Name           Elevation  MaxDepth   InitDepth  SurDepth   Aponded   
;;-------------- ---------- ---------- ---------- ---------- ----------
J1               1.76       0          0          0          13503     
J10              1.69       0          0          0          1393.92   
J11              1.6        0          0          0          304.92    
J12              1.55       0          0          0          19166.4   
J13              1.5        0          0          0          11761.2   
J14              1.45       0          0          0          1742.4    
J15              1.35       0          0          0          1960.2    
J16              1.2        0          0          0          653.4     
J17              1.15       0          0          0          784.08    
J18              1.1        0          0          0          1306.8    
J19              1.05       0          0          0          8712      
J2               1.69       0          0          0          6098.4    
J20              1          0          0          0          0         
J21              0.95       0          0          0          0         
J22              1.5        0          0          0          14374.8   
J23              1.2        0          0          0          435.6     
J24              0.99       0          0          0          0         
J3               1.62       0          0          0          1698.84   
J4               1.57       0          0          0          1306.8    
J5               1.4        0          0          0          2439.36   
J6               1.3        0          0          0          2221.56   
J7               1.2        0          0          0          8276.4    
J8               1          0          0          0          784.08    
J9               1.74       0          0          0          1306.8    
M1               0.7        4.4        0          0          0         
M2               0.3        4.9        0          0          0         
M3               -1.3       6.1        0          0          0         
M4               -2.9       8.5        0          0          0         
M5               -4.1       11.5       0          0          0         

[OUTFALLS]
;;Name           Elevation  Type       Stage Data       Gated    Route To        
;;-------------- ---------- ---------- ---------------- -------- ----------------
OF1              0.94       FREE                        NO                       
OF2              0.9        FREE                        NO                       
SO1              -4.5       FREE                        NO                       

[CONDUITS]
;;Name           From Node        To Node          Length     Roughness  InOffset   OutOffset  InitFlow   MaxFlow   
;;-------------- ---------------- ---------------- ---------- ---------- ---------- ---------- ---------- ----------
C1               J1               J2               97.2       0.1        1.76       1.69       0          0         
C10              J18              J19              23.07      0.011      1.1        1.05       0          0         
C11              J17              J18              21.07      0.1        1.15       1.1        0          0         
C12              J16              J17              23.59      0.011      1.2        1.15       0          0         
C13              J15              J16              69.03      0.1        1.35       1.2        0          0         
C14              J14              J15              49.74      0.01       1.45       1.35       0          0         
C15              J13              J14              154.76     0.1        1.5        1.45       0          0         
C16              J12              J13              179.03     0.011      1.55       1.5        0          0         
C17              J11              J12              13.87      0.1        1.6        1.55       0          0         
C18              J10              J11              41.75      0.011      1.69       1.6        0          0         
C19              J9               J10              24.11      0.1        1.74       1.69       0          0         
C2               J2               J3               39.5       0.011      1.69       1.62       0          0         
C20              J22              J23              319.73     0.1        1.5        1.2        0          0         
C21              J23              J24              15         0.1        1.2        0.99       0          0         
C22              J24              OF1              49.21      0.011      0.99       0.94       0          0         
C23              J8               J21              20         0.1        1          0.95       0          0         
C24              J20              J21              20         0.1        1          0.95       0          0         
C3               J3               J4               24.4       0.1        1.62       1.57       0          0         
C4               J4               J5               38.04      0.011      1.57       1.4        0          0         
C5               J5               J6               52.4       0.1        1.4        1.3        0          0         
C6               J6               J7               40.96      0.022      1.3        1.2        0          0         
C7               J7               J8               102.17     0.1        1.2        1          0          0         
C8               J21              OF2              36.38      0.011      0.95       0.9        0          0         
C9               J19              J20              104.02     0.1        1.05       1          0          0         
GSP1             M1               M2               102        0.009      1.4        0.6        0          0         
GSP2             M2               M3               400        0.009      0.6        -1.3       0          0         
GSP3             M3               M4               400        0.009      -1.3       -2.9       0          0         
GSP4             M4               M5               300        0.009      -2.9       -4.1       0          0         
GSP5             M5               SO1              100        0.009      -4.1       -4.5       0          0         

[XSECTIONS]
;;Link           Shape        Geom1            Geom2      Geom3      Geom4      Barrels    Culvert   
;;-------------- ------------ ---------------- ---------- ---------- ---------- ---------- ----------
C1               PARABOLIC    1.5              16         0          0          1                    
C10              CIRCULAR     1.25             0          0          0          1          3         
C11              PARABOLIC    2                15         0          0          1                    
C12              CIRCULAR     1.25             0          0          0          1          3         
C13              PARABOLIC    3                8          0          0          1                    
C14              CIRCULAR     1.25             0          0          0          1                    
C15              PARABOLIC    3                16         0          0          1                    
C16              CIRCULAR     1.25             0          0          0          1                    
C17              PARABOLIC    2                11         0          0          1                    
C18              CIRCULAR     1.25             0          0          0          1                    
C19              PARABOLIC    2                18         0          0          1                    
C2               CIRCULAR     0.1              0          0          0          1                    
C20              PARABOLIC    2.5              15         0          0          1                    
C21              DUMMY        0                0          0          0          1                    
C22              CIRCULAR     0.1              0          0          0          1          6         
C23              DUMMY        0                0          0          0          1                    
C24              DUMMY        0                0          0          0          1                    
C3               PARABOLIC    0.1              0.1        0          0          1                    
C4               CIRCULAR     0.1              0          0          0          1                    
C5               PARABOLIC    1.5              17         0          0          1                    
C6               CIRCULAR     1.25             0          0          0          1          6         
C7               PARABOLIC    2.7              20         0          0          1                    
C8               CIRCULAR     1                0          0          0          1          6         
C9               PARABOLIC    2.7              20         0          0          1                    
GSP1             CIRCULAR     0.67             0          0          0          1                    
GSP2             CIRCULAR     0.67             0          0          0          1                    
GSP3             CIRCULAR     0.67             0          0          0          1                    
GSP4             CIRCULAR     0.67             0          0          0          1                    
GSP5             CIRCULAR     0.67             0          0          0          1                    

[LOSSES]
;;Link           Kentry     Kexit      Kavg       Flap Gate  Seepage   
;;-------------- ---------- ---------- ---------- ---------- ----------
C6               0.9        0          0          NO         0
C8               0.9        0          0          NO         0

[DWF]
;;Node           Constituent      Baseline   Patterns  
;;-------------- ---------------- ---------- ----------
M1               FLOW             0.73       "sanitary_pattern" "" "" ""
M2               FLOW             1.168      "sanitary_pattern" "" "" ""
M3               FLOW             1.898      "sanitary_pattern" "" "" ""
M4               FLOW             2.92       "sanitary_pattern" "" "" ""
M5               FLOW             0.146      "sanitary_pattern" "" "" ""

[TIMESERIES]
;;Name           Date       Time       Value     
;;-------------- ---------- ---------- ----------
pipeflow_1       10/1/12    0:00       6.30630631
pipeflow_1       10/1/12    1:00       5.25525526
pipeflow_1       10/1/12    2:00       5.25525526
pipeflow_1       10/1/12    3:00       5.25525526
pipeflow_1       10/1/12    4:00       5.25525526
pipeflow_1       10/1/12    5:00       6.30630631
pipeflow_1       10/1/12    6:00       8.40840841
pipeflow_1       10/1/12    7:00       11.56156156
pipeflow_1       10/1/12    8:00       12.19219219
pipeflow_1       10/1/12    9:00       10.51051051
pipeflow_1       10/1/12    10:00      9.45945946
pipeflow_1       10/1/12    11:00      8.82882883
pipeflow_1       10/1/12    12:00      8.82882883
pipeflow_1       10/1/12    13:00      8.82882883
pipeflow_1       10/1/12    14:00      8.40840841
pipeflow_1       10/1/12    15:00      8.82882883
pipeflow_1       10/1/12    16:00      9.45945946
pipeflow_1       10/1/12    17:00      10.09009009
pipeflow_1       10/1/12    18:00      11.56156156
pipeflow_1       10/1/12    19:00      12.19219219
pipeflow_1       10/1/12    20:00      10.93093093
pipeflow_1       10/1/12    21:00      10.09009009
pipeflow_1       10/1/12    22:00      8.82882883
pipeflow_1       10/1/12    23:00      7.35735736
pipeflow_1       10/2/12    0:00       6.30630631
pipeflow_1       10/2/12    1:00       5.25525526
pipeflow_1       10/2/12    2:00       5.25525526
pipeflow_1       10/2/12    3:00       5.25525526
pipeflow_1       10/2/12    4:00       5.25525526
pipeflow_1       10/2/12    5:00       6.30630631
pipeflow_1       10/2/12    6:00       8.40840841
pipeflow_1       10/2/12    7:00       11.56156156
pipeflow_1       10/2/12    8:00       12.19219219
pipeflow_1       10/2/12    9:00       10.51051051
pipeflow_1       10/2/12    10:00      9.45945946
pipeflow_1       10/2/12    11:00      8.82882883
pipeflow_1       10/2/12    12:00      8.82882883
pipeflow_1       10/2/12    13:00      8.82882883
pipeflow_1       10/2/12    14:00      8.40840841
pipeflow_1       10/2/12    15:00      8.82882883
pipeflow_1       10/2/12    16:00      9.45945946
pipeflow_1       10/2/12    17:00      10.09009009
pipeflow_1       10/2/12    18:00      11.56156156
pipeflow_1       10/2/12    19:00      12.19219219
pipeflow_1       10/2/12    20:00      10.93093093
pipeflow_1       10/2/12    21:00      10.09009009
pipeflow_1       10/2/12    22:00      8.82882883
pipeflow_1       10/2/12    23:00      7.35735736
pipeflow_1       10/3/12    0:00       6.30630631
pipeflow_1       10/3/12    1:00       5.25525526
pipeflow_1       10/3/12    2:00       5.25525526
pipeflow_1       10/3/12    3:00       5.25525526
pipeflow_1       10/3/12    4:00       5.25525526
pipeflow_1       10/3/12    5:00       6.30630631
pipeflow_1       10/3/12    6:00       8.40840841
pipeflow_1       10/3/12    7:00       11.56156156
pipeflow_1       10/3/12    8:00       12.19219219
pipeflow_1       10/3/12    9:00       10.51051051
pipeflow_1       10/3/12    10:00      9.45945946
pipeflow_1       10/3/12    11:00      8.82882883
pipeflow_1       10/3/12    12:00      8.82882883
pipeflow_1       10/3/12    13:00      8.82882883
pipeflow_1       10/3/12    14:00      8.40840841
pipeflow_1       10/3/12    15:00      8.82882883
pipeflow_1       10/3/12    16:00      9.45945946
pipeflow_1       10/3/12    17:00      10.09009009
pipeflow_1       10/3/12    18:00      11.56156156
pipeflow_1       10/3/12    19:00      12.19219219
pipeflow_1       10/3/12    20:00      10.93093093
pipeflow_1       10/3/12    21:00      10.09009009
pipeflow_1       10/3/12    22:00      8.82882883
pipeflow_1       10/3/12    23:00      7.35735736
pipeflow_1       10/4/12    0:00       6.30630631
pipeflow_1       10/4/12    1:00       5.25525526
pipeflow_1       10/4/12    2:00       5.25525526
pipeflow_1       10/4/12    3:00       5.25525526
pipeflow_1       10/4/12    4:00       5.25525526
pipeflow_1       10/4/12    5:00       6.30630631
pipeflow_1       10/4/12    6:00       8.40840841
pipeflow_1       10/4/12    7:00       11.56156156
pipeflow_1       10/4/12    8:00       12.19219219
pipeflow_1       10/4/12    9:00       10.51051051
pipeflow_1       10/4/12    10:00      9.45945946
pipeflow_1       10/4/12    11:00      8.82882883
pipeflow_1       10/4/12    12:00      8.82882883
pipeflow_1       10/4/12    13:00      8.82882883
pipeflow_1       10/4/12    14:00      8.40840841
pipeflow_1       10/4/12    15:00      8.82882883
pipeflow_1       10/4/12    16:00      9.45945946
pipeflow_1       10/4/12    17:00      10.09009009
pipeflow_1       10/4/12    18:00      11.56156156
pipeflow_1       10/4/12    19:00      12.19219219
pipeflow_1       10/4/12    20:00      10.93093093
pipeflow_1       10/4/12    21:00      10.09009009
pipeflow_1       10/4/12    22:00      8.82882883
pipeflow_1       10/4/12    23:00      7.35735736
pipeflow_1       10/5/12    0:00       6.30630631
pipeflow_1       10/5/12    1:00       5.25525526
pipeflow_1       10/5/12    2:00       5.25525526
pipeflow_1       10/5/12    3:00       5.25525526
pipeflow_1       10/5/12    4:00       5.25525526
pipeflow_1       10/5/12    5:00       6.30630631
pipeflow_1       10/5/12    6:00       8.40840841
pipeflow_1       10/5/12    7:00       11.56156156
pipeflow_1       10/5/12    8:00       12.19219219
pipeflow_1       10/5/12    9:00       10.51051051
pipeflow_1       10/5/12    10:00      9.45945946
pipeflow_1       10/5/12    11:00      8.82882883
pipeflow_1       10/5/12    12:00      8.82882883
pipeflow_1       10/5/12    13:00      8.82882883
pipeflow_1       10/5/12    14:00      8.40840841
pipeflow_1       10/5/12    15:00      8.82882883
pipeflow_1       10/5/12    16:00      9.45945946
pipeflow_1       10/5/12    17:00      10.09009009
pipeflow_1       10/5/12    18:00      11.56156156
pipeflow_1       10/5/12    19:00      12.19219219
pipeflow_1       10/5/12    20:00      10.93093093
pipeflow_1       10/5/12    21:00      10.09009009
pipeflow_1       10/5/12    22:00      8.82882883
pipeflow_1       10/5/12    23:00      7.35735736
pipeflow_1       10/6/12    0:00       6.30630631
pipeflow_1       10/6/12    1:00       5.25525526
pipeflow_1       10/6/12    2:00       5.25525526
pipeflow_1       10/6/12    3:00       5.25525526
pipeflow_1       10/6/12    4:00       5.25525526
pipeflow_1       10/6/12    5:00       6.30630631
pipeflow_1       10/6/12    6:00       8.40840841
pipeflow_1       10/6/12    7:00       11.56156156
pipeflow_1       10/6/12    8:00       12.19219219
pipeflow_1       10/6/12    9:00       10.51051051
pipeflow_1       10/6/12    10:00      9.45945946
pipeflow_1       10/6/12    11:00      8.82882883
pipeflow_1       10/6/12    12:00      8.82882883
pipeflow_1       10/6/12    13:00      8.82882883
pipeflow_1       10/6/12    14:00      8.40840841
pipeflow_1       10/6/12    15:00      8.82882883
pipeflow_1       10/6/12    16:00      9.45945946
pipeflow_1       10/6/12    17:00      10.09009009
pipeflow_1       10/6/12    18:00      11.56156156
pipeflow_1       10/6/12    19:00      12.19219219
pipeflow_1       10/6/12    20:00      10.93093093
pipeflow_1       10/6/12    21:00      10.09009009
pipeflow_1       10/6/12    22:00      8.82882883
pipeflow_1       10/6/12    23:00      7.35735736
pipeflow_1       10/7/12    0:00       6.30630631
pipeflow_1       10/7/12    1:00       5.25525526
pipeflow_1       10/7/12    2:00       5.25525526
pipeflow_1       10/7/12    3:00       5.25525526
pipeflow_1       10/7/12    4:00       5.25525526
pipeflow_1       10/7/12    5:00       6.30630631
pipeflow_1       10/7/12    6:00       8.40840841
pipeflow_1       10/7/12    7:00       11.56156156
pipeflow_1       10/7/12    8:00       12.19219219
pipeflow_1       10/7/12    9:00       10.51051051
pipeflow_1       10/7/12    10:00      9.45945946
pipeflow_1       10/7/12    11:00      8.82882883
pipeflow_1       10/7/12    12:00      8.82882883
pipeflow_1       10/7/12    13:00      8.82882883
pipeflow_1       10/7/12    14:00      8.40840841
pipeflow_1       10/7/12    15:00      8.82882883
pipeflow_1       10/7/12    16:00      9.45945946
pipeflow_1       10/7/12    17:00      10.09009009
pipeflow_1       10/7/12    18:00      11.56156156
pipeflow_1       10/7/12    19:00      12.19219219