# File generated by Flopy version 3.4.3 on 05/26/2026 at 20:04:53.
BEGIN options
  PRINT_OPTION  all
  COMPLEXITY  simple
END options

BEGIN linear
  LINEAR_ACCELERATION  bicgstab
END linear

