# File generated by Flopy version 3.4.3 on 05/26/2026 at 20:04:55.
BEGIN options
  BUDGET  FILEOUT  Bowers_beach.cbc
  BUDGETCSV  FILEOUT  Bowers_beach_budget.csv
  HEAD  FILEOUT  Bowers_beach.hds
END options

BEGIN period  1
  SAVE  HEAD  ALL
  SAVE  BUDGET  ALL
  PRINT  HEAD  ALL
END period  1

