# File generated by Flopy version 3.5.0 on 04/29/2024 at 12:23:47.
BEGIN options
END options

BEGIN dimensions
  MAXBOUND  903
END dimensions

BEGIN period  1
  1 56 287 2.89707506E+00 6.78851848E-01 -2.70000000E+00
  1 57 287 2.89707506E+00 9.39811385E-01 -2.70000000E+00
  1 58 287 2.89707506E+00 9.39805658E-01 -2.70000000E+00
  1 59 287 2.89707506E+00 9.39795504E-01 -2.70000000E+00
  1 60 283 2.89707506E+00 1.68300850E-02 -1.18617563E+00
  1 60 284 2.89707506E+00 3.26093764E-01 -1.41743692E+00
  1 60 286 2.89707506E+00 1.53793133E-01 -1.99350858E+00
  1 60 287 2.89707506E+00 8.90334755E-01 -2.67165169E+00
  1 61 281 2.89707506E+00 4.87981846E-02 -1.17607437E+00
  1 61 282 2.89707506E+00 1.04970603E+00 -1.19106330E+00
  1 61 283 2.89707506E+00 1.01515722E+00 -1.41205419E+00
  1 61 284 2.89707506E+00 6.29453694E-01 -1.26019451E+00
  1 61 285 2.89707506E+00 9.33634767E-01 -1.33421340E+00
  1 61 286 2.89707506E+00 8.10492867E-01 -1.55976605E+00
  1 62 280 2.89707506E+00 4.21783112E-01 -8.96053523E-01
  1 62 281 2.89707506E+00 1.13162174E+00 -1.17607437E+00
  1 63 278 2.89707506E+00 2.82861324E-02 -1.69513854E-01
  1 63 279 2.89707506E+00 1.10764484E+00 -3.80391126E-01
  1 63 280 2.89707506E+00 6.69345992E-01 -8.96053523E-01
  1 64 278 2.89707506E+00 1.69133451E+00 2.19234643E-01
  1 65 277 2.89707506E+00 1.11184080E+00 6.99447418E-01
  1 65 278 2.89707506E+00 2.23000261E-01 7.31206790E-02
  1 66 276 2.89707506E+00 7.81414131E-01 6.96951370E-01
  1 66 277 2.89707506E+00 3.81007271E-01 8.39139604E-01
  1 67 276 2.89707506E+00 1.07308952E+00 5.01413666E-01
  1 68 275 2.89707506E+00 6.68203101E-01 1.57370371E-01
  1 68 276 2.89707506E+00 3.98533601E-01 1.57370371E-01
  1 69 275 2.89707506E+00 9.61806438E-01 -6.13651451E-03
  1 70 275 2.89707506E+00 9.68957144E-01 -1.86503788E-01
  1 71 274 2.89707506E+00 5.97803600E-01 1.18450474E-01
  1 71 275 2.89707506E+00 3.92037262E-01 -2.61718988E-01
  1 72 274 2.89707506E+00 1.02501405E+00 1.59229465E-01
  1 73 274 2.89707506E+00 9.51258690E-01 1.82654422E-01
  1 74 273 2.89707506E+00 2.55002857E-01 -1.59118628E-02
  1 74 274 2.89707506E+00 7.55697236E-01 -1.17073895E-01
  1 75 273 2.89707506E+00 9.51780350E-01 -1.59118628E-02
  1 76 273 2.89707506E+00 9.33423817E-01 3.16211372E-01
  1 77 273 2.89707506E+00 9.35570678E-01 8.39465516E-01
  1 78 273 2.89707506E+00 9.37769978E-01 8.98443517E-01
  1 79 273 2.89707506E+00 7.43644845E-01 8.98443517E-01
  1 79 274 2.89707506E+00 2.13183099E-01 7.33402046E-01
  1 80 274 2.89707506E+00 9.99943094E-01 9.03331191E-01
  1 81 274 2.89707506E+00 1.04216514E+00 8.32679157E-01
  1 82 274 2.89707506E+00 1.11862018E-01 5.32950840E-01
  1 82 275 2.89707506E+00 9.70987547E-01 5.32950840E-01
  1 83 275 2.89707506E+00 7.61305484E-01 2.33222524E-01
  1 83 276 2.89707506E+00 3.70798515E-01 1.88907545E-01
  1 84 276 2.89707506E+00 1.10341698E+00 -6.65057922E-02
  1 84 287 2.89707506E+00 4.82020246E-01 -1.17607437E+00
  1 84 288 2.89707506E+00 1.01885874E+00 -1.17607437E+00
  1 84 289 2.89707506E+00 9.58487026E-01 -1.17607437E+00
  1 84 290 2.89707506E+00 9.37870802E-01 -1.06650244E+00
  1 84 291 2.89707506E+00 9.47799575E-01 -9.85930640E-01
  1 84 292 2.89707506E+00 9.97454803E-01 -7.95605118E-01
  1 84 293 2.89707506E+00 6.40050183E-01 -7.61717310E-01
  1 85 276 2.89707506E+00 5.02811185E-01 -2.61718988E-01
  1 85 277 2.89707506E+00 9.92477247E-01 -3.01146293E-01
  1 85 285 2.89707506E+00 5.91537084E-01 -1.17607437E+00
  1 85 286 2.89707506E+00 1.01846204E+00 -1.17607437E+00
  1 85 287 2.89707506E+00 5.48164741E-01 -1.17607437E+00
  1 85 293 2.89707506E+00 3.95343640E-01 -5.66504115E-01
  1 85 294 2.89707506E+00 1.09074649E+00 -5.66504115E-01
  1 85 295 2.89707506E+00 2.97336449E-01 -3.10269818E-01
  1 86 277 2.89707506E+00 1.49388608E-01 -3.01146293E-01
  1 86 278 2.89707506E+00 1.23200457E+00 -5.66504115E-01
  1 86 279 2.89707506E+00 3.14217916E-01 -5.36852158E-01
  1 86 283 2.89707506E+00 1.22423610E-01 -7.81932191E-01
  1 86 284 2.89707506E+00 1.11796649E+00 -9.82371333E-01
  1 86 285 2.89707506E+00 4.66500794E-01 -1.07661606E+00
  1 86 295 2.89707506E+00 9.81981193E-01 -3.10269818E-01
  1 86 296 2.89707506E+00 3.60729505E-01 -4.67045804E-01
  1 87 279 2.89707506E+00 8.31281260E-01 -6.90557571E-01
  1 87 280 2.89707506E+00 8.84488748E-01 -9.65690741E-01
  1 87 282 2.89707506E+00 9.25083717E-01 -6.45916681E-01
  1 87 283 2.89707506E+00 9.73158988E-01 -5.66504115E-01
  1 87 296 2.89707506E+00 1.15386191E+00 -2.61718988E-01
  1 88 280 2.89707506E+00 1.92560245E-01 -1.11149396E+00
  1 88 281 2.89707506E+00 9.80924968E-01 -1.39151480E+00
  1 88 282 2.89707506E+00 1.58442389E-01 -9.45644997E-01
  1 88 296 2.89707506E+00 8.52321980E-03 -1.72374298E-01
  1 88 297 2.89707506E+00 1.04200913E+00 4.30661384E-02
  1 89 297 2.89707506E+00 1.03429034E+00 4.30661384E-02
  1 90 297 2.89707506E+00 2.29235582E-02 1.25635589E-03
  1 90 298 2.89707506E+00 9.61227424E-01 -1.15396000E-01
  1 91 298 2.89707506E+00 9.40849038E-01 -7.14852633E-01
  1 92 298 2.89707506E+00 9.47217310E-01 -1.04374307E+00
  1 93 297 2.89707506E+00 1.38347524E-02 -2.51935382E-01
  1 93 298 2.89707506E+00 9.63159560E-01 -6.79954112E-01
  1 94 297 2.89707506E+00 9.69741852E-01 6.52636391E-01
  1 95 297 2.89707506E+00 1.09027965E+00 7.60530428E-01
  1 96 296 2.89707506E+00 8.48710846E-01 1.31109685E+00
  1 96 297 2.89707506E+00 2.65178939E-01 8.18178955E-01
  1 97 295 2.89707506E+00 3.74961602E-01 1.44020901E+00
  1 97 296 2.89707506E+00 7.95916340E-01 1.02046513E+00
  1 98 294 2.89707506E+00 1.68396011E-01 4.48980318E-01
  1 98 295 2.89707506E+00 1.06449283E+00 1.04877522E+00
  1 99 294 2.89707506E+00 1.06682284E+00 -2.71662367E-01
  1 100 294 2.89707506E+00 9.64822838E-01 -4.94177992E-01
  1 101 294 2.89707506E+00 3.68314873E-01 -2.18055832E-01
  1 101 295 2.89707506E+00 8.18880127E-01 -5.17953285E-01
  1 102 295 2.89707506E+00 1.04180597E+00 -4.99403938E-01
  1 103 295 2.89707506E+00 2.25448205E-01 -2.13168158E-01
  1 103 296 2.89707506E+00 7.79238441E-01 -2.61718988E-01
  1 104 296 2.89707506E+00 9.44254950E-01 -2.44847536E-01
  1 105 256 2.89707506E+00 6.72067870E-01 -3.97029618E-01
  1 105 257 2.89707506E+00 1.01420203E+00 -7.03684902E-01
  1 105 258 2.89707506E+00 1.04448560E+00 -7.38996128E-01
  1 105 259 2.89707506E+00 4.79780917E-01 -4.39098676E-01
  1 105 296 2.89707506E+00 9.42955035E-01 9.65046423E-02
  1 106 255 2.89707506E+00 1.15878178E+00 5.02324467E-01
  1 106 256 2.89707506E+00 3.73610634E-01 -7.83541193E-02
  1 106 259 2.89707506E+00 9.75430785E-01 -4.39098676E-01
  1 106 296 2.89707506E+00 9.79767666E-01 9.65046423E-02
  1 107 254 2.89707506E+00 1.22085975E+00 2.09476864E-01
  1 107 255 2.89707506E+00 6.61378564E-02 -9.04205880E-02
  1 107 259 2.89707506E+00 9.64936764E-01 -3.18427941E-01
  1 107 295 2.89707506E+00 7.44550543E-01 -2.48249579E-01
  1 107 296 2.89707506E+00 2.36632888E-01 3.09704366E-03
  1 108 253 2.89707506E+00 8.24841372E-01 5.79713269E-02
  1 108 254 2.89707506E+00 1.70716195E-01 -2.38135958E-01
  1 108 259 2.89707506E+00 7.70118854E-01 -3.11693237E-01
  1 108 260 2.89707506E+00 2.03878537E-01 1.65583903E-01
  1 108 295 2.89707506E+00 1.01904525E+00 -6.58270359E-02
  1 109 253 2.89707506E+00 9.59906711E-01 1.74271456E-01
  1 109 260 2.89707506E+00 1.06061003E+00 5.99144634E-02
  1 109 294 2.89707506E+00 2.71973459E-01 -8.98104072E-01
  1 109 295 2.89707506E+00 7.45519175E-01 -3.41972323E-01
  1 110 253 2.89707506E+00 9.69399057E-01 3.25946130E-01
  1 110 260 2.89707506E+00 8.70542329E-01 -2.39813853E-01
  1 110 261 2.89707506E+00 1.79329926E-01 -2.39813853E-01
  1 110 294 2.89707506E+00 1.12291564E+00 -1.17607437E+00
  1 111 252 2.89707506E+00 1.24193554E-01 6.25674446E-01
  1 111 253 2.89707506E+00 8.47230882E-01 7.82405930E-01
  1 111 261 2.89707506E+00 1.20995759E+00 -3.79349079E-01
  1 111 287 2.89707506E+00 1.53576749E-01 -5.84016623E-01
  1 111 288 2.89707506E+00 9.41997890E-01 -8.56952130E-01
  1 111 289 2.89707506E+00 9.35787836E-01 -8.79026402E-01
  1 111 290 2.89707506E+00 9.35893507E-01 -1.15196191E+00
  1 111 291 2.89707506E+00 9.67979955E-01 -1.17607437E+00
  1 111 292 2.89707506E+00 9.72468251E-01 -1.17607437E+00
  1 111 293 2.89707506E+00 9.47198184E-01 -1.17607437E+00
  1 111 294 2.89707506E+00 2.55883598E-01 -1.17607437E+00
  1 112 252 2.89707506E+00 9.91945825E-01 2.18250863E-01
  1 112 261 2.89707506E+00 1.08507228E-01 -4.16855268E-01
  1 112 262 2.89707506E+00 1.17482567E+00 -2.93737744E-01
  1 112 285 2.89707506E+00 9.92655086E-02 8.60713428E-01
  1 112 286 2.89707506E+00 1.11508984E+00 2.60918523E-01
  1 112 287 2.89707506E+00 8.57278917E-01 -5.38155805E-01
  1 113 252 2.89707506E+00 9.80417664E-01 1.86232107E-01
  1 113 262 2.89707506E+00 1.73257531E-01 -2.61718988E-01
  1 113 263 2.89707506E+00 1.23464930E+00 -3.69573731E-01
  1 113 264 2.89707506E+00 9.15142403E-03 -5.66504115E-01
  1 113 284 2.89707506E+00 3.67090945E-02 1.55656460E+00
  1 113 285 2.89707506E+00 1.24851301E+00 9.56769695E-01
  1 114 251 2.89707506E+00 3.76841152E-01 1.23397811E+00
  1 114 252 2.89707506E+00 6.51925139E-01 5.92050826E-01
  1 114 264 2.89707506E+00 1.21163775E+00 -5.66504115E-01
  1 114 265 2.89707506E+00 2.53165390E-01 -5.24371738E-01
  1 114 284 2.89707506E+00 1.11690858E+00 2.34973644E+00
  1 115 251 2.89707506E+00 1.00666460E+00 9.76382167E-01
  1 115 265 2.89707506E+00 8.84347280E-01 -5.66504115E-01
  1 115 266 2.89707506E+00 8.91072398E-01 -5.66504115E-01
  1 115 283 2.89707506E+00 6.79320128E-01 1.11919160E+00
  1 115 284 2.89707506E+00 5.21171895E-01 9.30557924E-01
  1 116 251 2.89707506E+00 9.85727543E-01 6.76653850E-01
  1 116 266 2.89707506E+00 2.14259120E-01 -5.66504115E-01
  1 116 267 2.89707506E+00 1.07261293E+00 -5.66504115E-01
  1 116 282 2.89707506E+00 7.79233102E-01 -1.57226995E-01
  1 116 283 2.89707506E+00 6.57751095E-01 -6.28362615E-02
  1 117 250 2.89707506E+00 7.36538909E-01 5.95847499E-01
  1 117 251 2.89707506E+00 2.42791333E-01 4.62456879E-01
  1 117 267 2.89707506E+00 3.75729018E-01 -5.66504115E-01
  1 117 268 2.89707506E+00 9.65672294E-01 -5.66504115E-01
  1 117 281 2.89707506E+00 1.11723240E+00 -2.24292789E-01
  1 117 282 2.89707506E+00 4.12462676E-01 -5.09201308E-01
  1 118 250 2.89707506E+00 9.56992213E-01 1.67785373E-01
  1 118 268 2.89707506E+00 3.84560371E-01 -1.65069468E-01
  1 118 269 2.89707506E+00 9.29181952E-01 -4.02607303E-01
  1 118 279 2.89707506E+00 8.59017995E-01 -7.79277668E-01
  1 118 280 2.89707506E+00 1.05223228E+00 -5.41739832E-01
  1 118 281 2.89707506E+00 6.06309432E-02 -2.81595596E-01
  1 119 23 2.89707506E+00 4.10895254E-01 1.93353293E+00
  1 119 24 2.89707506E+00 7.91162508E-01 2.35771516E+00
  1 119 250 2.89707506E+00 9.70365317E-01 -1.94302561E-01
  1 119 269 2.89707506E+00 3.32051075E-01 -1.02878987E-01
  1 119 270 2.89707506E+00 1.16771353E+00 -4.76417462E-01
  1 119 271 2.89707506E+00 5.57993091E-02 -9.40042590E-01
  1 119 276 2.89707506E+00 2.39636305E-02 -1.06434296E+00
  1 119 277 2.89707506E+00 1.01702301E+00 -8.31861936E-01
  1 119 278 2.89707506E+00 1.02073367E+00 -6.01043745E-01
  1 119 279 2.89707506E+00 2.38620272E-01 -6.04268586E-01
  1 120 22 2.89707506E+00 1.05659814E+00 2.03161555E+00
  1 120 23 2.89707506E+00 5.64281824E-01 2.16584481E+00
  1 120 250 2.89707506E+00 4.26737992E-01 -2.61718988E-01
  1 120 251 2.89707506E+00 1.01050312E+00 -2.61718988E-01
  1 120 252 2.89707506E+00 8.72955439E-01 -4.23338146E-01
  1 120 271 2.89707506E+00 9.89400373E-01 -7.07730702E-01
  1 120 272 2.89707506E+00 9.46195978E-01 -9.43762479E-01
  1 120 273 2.89707506E+00 9.34243969E-01 -9.43762479E-01
  1 120 274 2.89707506E+00 9.52023499E-01 -9.97852806E-01
  1 120 275 2.89707506E+00 9.78538882E-01 -1.17607437E+00
  1 120 276 2.89707506E+00 9.85442660E-01 -1.13175939E+00
  1 121 21 2.89707506E+00 5.35496251E-01 2.86498954E+00
  1 121 22 2.89707506E+00 4.73096959E-01 2.43114107E+00
  1 121 252 2.89707506E+00 9.77170612E-02 -6.50593225E-01
  1 121 253 2.89707506E+00 9.68969922E-01 -7.93759193E-01
  1 121 254 2.89707506E+00 9.81914014E-01 -8.71289241E-01
  1 121 255 2.89707506E+00 7.65957299E-01 -8.71289241E-01
  1 122 21 2.89707506E+00 9.37055955E-01 3.25263978E+00
  1 122 255 2.89707506E+00 2.85908878E-01 -8.71289241E-01
  1 122 256 2.89707506E+00 1.11328528E+00 -1.01335770E+00
  1 122 257 2.89707506E+00 2.95154186E-01 -1.17607437E+00
  1 123 21 2.89707506E+00 9.36472418E-01 3.25263978E+00
  1 123 257 2.89707506E+00 9.89594942E-01 -9.58932909E-01
  1 123 258 2.89707506E+00 3.60085229E-01 -9.58932909E-01
  1 124 21 2.89707506E+00 9.97191307E-01 4.24404112E+00
  1 124 258 2.89707506E+00 9.25457612E-01 -8.71289241E-01
  1 124 259 2.89707506E+00 3.69388989E-01 -8.71289241E-01
  1 125 21 2.89707506E+00 1.03207223E+00 4.82187087E+00
  1 125 259 2.89707506E+00 1.06093971E+00 -9.98694680E-01
  1 126 20 2.89707506E+00 8.57339336E-01 5.89943108E+00
  1 126 21 2.89707506E+00 1.88242686E-01 6.11883123E+00
  1 126 259 2.89707506E+00 3.74888613E-01 -9.74103340E-01
  1 126 260 2.89707506E+00 9.99872553E-01 -1.21913887E+00
  1 126 261 2.89707506E+00 9.35696048E-01 -1.26041530E+00
  1 126 262 2.89707506E+00 9.35171913E-01 -1.17607437E+00
  1 126 263 2.89707506E+00 9.34613437E-01 -1.06821963E+00
  1 126 264 2.89707506E+00 9.53318664E-01 -7.68322173E-01
  1 126 265 2.89707506E+00 9.54882708E-01 -5.66504115E-01
  1 126 266 2.89707506E+00 8.86636538E-01 -5.66504115E-01
  1 127 19 2.89707506E+00 3.18342171E-01 7.03591062E+00
  1 127 20 2.89707506E+00 8.59672531E-01 7.61241484E+00
  1 127 266 2.89707506E+00 6.83999595E-02 -5.66504115E-01
  1 127 267 2.89707506E+00 1.08012306E+00 -4.78200069E-01
  1 127 268 2.89707506E+00 6.39049324E-01 -3.69589897E-01
  1 128 19 2.89707506E+00 1.07655078E+00 7.52052262E+00
  1 128 268 2.89707506E+00 6.47910945E-01 -2.61718988E-01
  1 128 269 2.89707506E+00 4.77174839E-01 -3.40247686E-01
  1 129 18 2.89707506E+00 6.72837498E-01 5.76419382E+00
  1 129 19 2.89707506E+00 4.49543502E-01 6.92718840E+00
  1 129 269 2.89707506E+00 9.82134852E-01 -2.61718988E-01
  1 130 17 2.89707506E+00 2.80146459E-01 4.76504791E+00
  1 130 18 2.89707506E+00 8.96917097E-01 5.05202449E+00
  1 130 269 2.89707506E+00 1.02472269E+00 -4.43462775E-01
  1 131 17 2.89707506E+00 1.19811949E+00 4.00465437E+00
  1 131 269 2.89707506E+00 9.40253275E-01 -5.66504115E-01
  1 132 16 2.89707506E+00 1.18172496E+00 2.67328664E+00
  1 132 17 2.89707506E+00 1.72970996E-02 3.36416362E+00
  1 132 269 2.89707506E+00 9.49706790E-01 -5.66504115E-01
  1 133 13 2.89707506E+00 7.49211706E-01 1.31689883E+00
  1 133 14 2.89707506E+00 3.85367989E-02 1.56699177E+00
  1 133 15 2.89707506E+00 1.13330729E+00 1.66784919E+00
  1 133 16 2.89707506E+00 3.04196137E-01 2.34013993E+00
  1 133 269 2.89707506E+00 9.96215789E-01 -3.99930759E-01
  1 134 12 2.89707506E+00 4.55926852E-02 1.11893806E+00
  1 134 13 2.89707506E+00 9.34124868E-01 1.34020360E+00
  1 134 14 2.89707506E+00 9.86577585E-01 1.62276322E+00
  1 134 15 2.89707506E+00 5.62159810E-02 1.66784919E+00
  1 134 268 2.89707506E+00 7.53369725E-01 1.21166312E-01
  1 134 269 2.89707506E+00 2.95109952E-01 -1.78731140E-01
  1 135 9 2.89707506E+00 7.50325329E-01 2.51763100E+00
  1 135 10 2.89707506E+00 9.84402684E-01 1.89480650E+00
  1 135 11 2.89707506E+00 9.34379879E-01 1.47450093E+00
  1 135 12 2.89707506E+00 9.73710479E-01 1.41866638E+00
  1 135 268 2.89707506E+00 1.08087539E+00 4.93937992E-01
  1 136 7 2.89707506E+00 2.81024102E-01 2.48332643E+00
  1 136 8 2.89707506E+00 1.05858298E+00 2.32994422E+00
  1 136 9 2.89707506E+00 4.80283718E-01 2.19976076E+00
  1 136 267 2.89707506E+00 9.96150913E-01 8.71096748E-01
  1 136 268 2.89707506E+00 9.03006315E-02 4.87782924E-01
  1 137 6 2.89707506E+00 8.93722846E-01 1.87027727E+00
  1 137 7 2.89707506E+00 7.62563410E-01 2.03021591E+00
  1 137 266 2.89707506E+00 3.43941939E-01 7.71038078E-01
  1 137 267 2.89707506E+00 7.86817780E-01 3.29682184E-01
  1 138 5 2.89707506E+00 9.95739891E-01 1.25688984E+00
  1 138 6 2.89707506E+00 3.19519320E-01 1.57054895E+00
  1 138 265 2.89707506E+00 3.73790159E-01 7.18052819E-01
  1 138 266 2.89707506E+00 9.93231111E-01 4.88459468E-01
  1 139 5 2.89707506E+00 1.00934802E+00 8.61694027E-01
  1 139 264 2.89707506E+00 3.42622018E-01 5.16403897E-01
  1 139 265 2.89707506E+00 9.80199820E-01 4.18324502E-01
  1 140 4 2.89707506E+00 9.94423451E-01 9.14987760E-01
  1 140 5 2.89707506E+00 1.49245738E-02 2.59109338E-01
  1 140 263 2.89707506E+00 1.37339672E-01 5.44781649E-01
  1 140 264 2.89707506E+00 1.08338552E+00 3.47851265E-01
  1 141 4 2.89707506E+00 1.00934802E+00 4.89097461E-01
  1 141 263 2.89707506E+00 1.08803066E+00 6.70900523E-01
  1 142 3 2.89707506E+00 5.65498542E-01 8.74806901E-01
  1 142 4 2.89707506E+00 4.43849482E-01 3.68035397E-01
  1 142 262 2.89707506E+00 3.92151996E-01 9.36522290E-01
  1 142 263 2.89707506E+00 6.66011724E-01 5.12795226E-01
  1 143 3 2.89707506E+00 9.90682421E-01 6.52636391E-01
  1 143 262 2.89707506E+00 1.06924447E+00 1.03672181E+00
  1 144 3 2.89707506E+00 8.45751703E-01 7.63584835E-01
  1 144 4 2.89707506E+00 1.19852871E-01 1.01424095E-01
  1 144 261 2.89707506E+00 7.97782613E-01 1.33841324E+00
  1 144 262 2.89707506E+00 3.83655129E-01 6.98494561E-01
  1 145 3 2.89707506E+00 1.14869789E+00 2.67109719E-01
  1 145 260 2.89707506E+00 5.39266585E-01 1.07993928E+00
  1 145 261 2.89707506E+00 6.68591672E-01 6.97533106E-01
  1 146 2 2.89707506E+00 9.49011105E-02 1.46181619E-01
  1 146 3 2.89707506E+00 8.58024813E-01 2.47016442E-01
  1 146 259 2.89707506E+00 6.21648524E-01 1.22777986E-01
  1 146 260 2.89707506E+00 7.93829758E-01 5.32399284E-01
  1 147 2 2.89707506E+00 9.53506962E-01 -1.54379037E-03
  1 147 257 2.89707506E+00 1.51905757E-01 1.26425864E-02
  1 147 258 2.89707506E+00 1.10478456E+00 6.05172263E-02
  1 147 259 2.89707506E+00 5.54379014E-01 1.24667813E-01
  1 148 2 2.89707506E+00 1.17287744E+00 4.05950949E-01
  1 148 256 2.89707506E+00 5.27598984E-01 -2.61718988E-01
  1 148 257 2.89707506E+00 9.98584908E-01 -3.98899775E-01
  1 149 1 2.89707506E+00 1.74174088E+00 1.39770691E+00
  1 149 2 2.89707506E+00 1.14370871E-01 8.47747882E-01
  1 149 255 2.89707506E+00 7.87543727E-01 -7.24333106E-01
  1 149 256 2.89707506E+00 6.85310581E-01 -4.24435653E-01
  1 150 1 2.89707506E+00 1.02627683E+00 1.22842205E+00
  1 150 254 2.89707506E+00 4.92697544E-01 -7.18347924E-01
  1 150 255 2.89707506E+00 5.61631158E-01 -8.04940688E-01
  1 151 1 2.89707506E+00 7.05517714E-01 1.30397282E+00
  1 151 2 2.89707506E+00 4.04623485E-01 8.55279464E-01
  1 151 254 2.89707506E+00 3.46362677E-01 -5.67246380E-01
  1 151 255 2.89707506E+00 6.17302595E-01 -7.20187697E-01
  1 152 2 2.89707506E+00 1.00590125E+00 1.33270061E+00
  1 152 255 2.89707506E+00 9.38464483E-01 -1.91225026E-01
  1 153 2 2.89707506E+00 9.49137033E-01 1.17276025E+00
  1 153 255 2.89707506E+00 9.35418953E-01 -1.14762853E-01
  1 154 2 2.89707506E+00 9.46826653E-01 8.73031933E-01
  1 154 255 2.89707506E+00 9.36455214E-01 -1.14762853E-01
  1 155 2 2.89707506E+00 9.85077059E-01 7.39274210E-01
  1 155 254 2.89707506E+00 1.82858378E-01 -1.51071926E-01
  1 155 255 2.89707506E+00 7.69073582E-01 -1.51071926E-01
  1 156 2 2.89707506E+00 7.06399893E-01 1.04754274E+00
  1 156 3 2.89707506E+00 3.24754319E-01 7.47645286E-01
  1 156 254 2.89707506E+00 9.96410309E-01 3.98117986E-01
  1 157 3 2.89707506E+00 1.17078278E+00 2.88407459E-01
  1 157 4 2.89707506E+00 8.71991626E-01 -1.56765609E-01
  1 157 253 2.89707506E+00 1.72184959E-01 1.55327375E-01
  1 157 254 2.89707506E+00 9.96349504E-01 -1.01764551E+00
  1 158 4 2.89707506E+00 3.22739626E-01 -2.26024434E-01
  1 158 5 2.89707506E+00 8.10907517E-01 -5.26351014E-01
  1 158 252 2.89707506E+00 4.37352250E-01 -3.18311765E-01
  1 158 253 2.89707506E+00 1.08229744E+00 -1.36751722E+00
  1 159 5 2.89707506E+00 6.46874912E-01 -4.11453151E-01
  1 159 6 2.89707506E+00 7.61393517E-01 -4.21657626E-01
  1 159 250 2.89707506E+00 3.44519142E-01 -3.95109608E-01
  1 159 251 2.89707506E+00 1.09266896E+00 -1.59377364E+00
  1 159 252 2.89707506E+00 6.62772914E-01 -2.70000000E+00
  1 160 5 2.89707506E+00 4.75247694E-01 -3.81413671E-01
  1 160 6 2.89707506E+00 7.36185230E-01 -3.91618146E-01
  1 160 248 2.89707506E+00 3.81584826E-01 -8.11210281E-01
  1 160 249 2.89707506E+00 1.04848723E+00 -9.05283420E-01
  1 160 250 2.89707506E+00 6.66424752E-01 -6.35425448E-01
  1 161 5 2.89707506E+00 9.66098531E-01 9.83482793E-02
  1 161 246 2.89707506E+00 8.93474637E-02 -4.27681521E-01
  1 161 247 2.89707506E+00 1.12084309E+00 -5.55325274E-01
  1 161 248 2.89707506E+00 6.55186960E-01 -1.71107782E+00
  1 162 5 2.89707506E+00 1.71546110E-01 3.58484868E-01
  1 162 6 2.89707506E+00 1.12742206E+00 -4.06565476E-01
  1 162 7 2.89707506E+00 7.45050728E-01 -7.06462929E-01
  1 162 245 2.89707506E+00 4.38639736E-01 6.29919978E-02
  1 162 246 2.89707506E+00 1.09535442E+00 -1.67544069E+00
  1 163 7 2.89707506E+00 2.45493464E-01 -6.91593880E-01
  1 163 8 2.89707506E+00 1.11440227E+00 -7.21349052E-01
  1 163 244 2.89707506E+00 9.90568274E-01 4.51915840E-01
  1 163 245 2.89707506E+00 6.92110276E-01 -1.62766883E-01
  1 164 8 2.89707506E+00 9.89929129E-01 -5.46879637E-01
  1 164 242 2.89707506E+00 1.64620259E-01 6.54929358E-01
  1 164 243 2.89707506E+00 1.19582842E+00 6.43878664E-01
  1 164 244 2.89707506E+00 1.30268051E-01 3.53793450E-01
  1 165 8 2.89707506E+00 1.05988975E+00 -9.20050017E-02
  1 165 9 2.89707506E+00 2.41810902E-01 -2.61718988E-01
  1 165 242 2.89707506E+00 1.22103563E+00 -2.03997541E+00
  1 166 9 2.89707506E+00 1.07063898E+00 -2.61718988E-01
  1 166 10 2.89707506E+00 2.03136524E-01 -2.61718988E-01
  1 166 241 2.89707506E+00 8.33864430E-01 -8.70987860E-01
  1 166 242 2.89707506E+00 1.13569262E-01 -2.13396325E+00
  1 167 10 2.89707506E+00 1.10754159E+00 -3.87014780E-01
  1 167 241 2.89707506E+00 9.36214724E-01 -2.72435371E-01
  1 168 9 2.89707506E+00 1.02917617E+00 -2.06885792E-01
  1 168 10 2.89707506E+00 1.24320024E+00 -5.66504115E-01
  1 168 241 2.89707506E+00 9.34942317E-01 -2.61718988E-01
  1 169 9 2.89707506E+00 9.46260708E-01 -2.17300794E-01
  1 169 241 2.89707506E+00 9.33190774E-01 -2.61718988E-01
  1 170 8 2.89707506E+00 7.05433844E-02 -7.14763794E-02
  1 170 9 2.89707506E+00 1.04656165E+00 -3.91902454E-01
  1 170 241 2.89707506E+00 9.35218387E-01 -2.61718988E-01
  1 171 8 2.89707506E+00 9.69691877E-01 -5.15333249E-01
  1 171 241 2.89707506E+00 9.41393768E-01 -4.77102561E-01
  1 172 8 2.89707506E+00 9.92953238E-01 -2.92361231E-01
  1 172 241 2.89707506E+00 9.34755559E-01 -4.77102561E-01
  1 173 8 2.89707506E+00 5.37760374E-02 -9.20050017E-02
  1 173 9 2.89707506E+00 1.18201722E+00 -2.61718988E-01
  1 173 10 2.89707506E+00 2.24551602E-01 -2.97418041E-01
  1 173 241 2.89707506E+00 9.51933795E-01 -5.30805062E-01
  1 174 9 2.89707506E+00 9.19187592E-01 -8.71173276E-02
  1 174 10 2.89707506E+00 8.38962407E-01 -2.61718988E-01
  1 174 241 2.89707506E+00 9.38317369E-01 -5.17858425E-01
  1 175 8 2.89707506E+00 2.65995476E-01 4.71752578E-01
  1 175 9 2.89707506E+00 7.03152879E-01 1.71855125E-01
  1 175 241 2.89707506E+00 9.34152736E-01 -7.36075014E-01
  1 176 8 2.89707506E+00 5.77923020E-01 6.36409754E-01
  1 176 9 2.89707506E+00 3.99931088E-01 2.96981781E-01
  1 176 241 2.89707506E+00 9.35516687E-01 -8.20419757E-01
  1 177 9 2.89707506E+00 1.03351781E+00 2.73594093E-01
  1 177 241 2.89707506E+00 9.34859863E-01 -1.03074652E+00
  1 178 9 2.89707506E+00 7.36619207E-01 2.17667799E-01
  1 178 10 2.89707506E+00 2.88900586E-01 1.68361930E-01
  1 178 240 2.89707506E+00 5.35936310E-01 -7.86775362E-01
  1 178 241 2.89707506E+00 4.14997246E-01 -1.08667281E+00
  1 179 10 2.89707506E+00 1.00072720E+00 1.68361930E-01
  1 179 240 2.89707506E+00 9.33255281E-01 -5.48030150E-01
  1 180 10 2.89707506E+00 1.01456441E+00 4.02050332E-01
  1 180 240 2.89707506E+00 9.33160078E-01 -4.17329592E-01
  1 181 10 2.89707506E+00 2.50663656E-01 2.44515465E-01
  1 181 11 2.89707506E+00 7.80915334E-01 5.00158335E-01
  1 181 240 2.89707506E+00 9.40078091E-01 -3.46232867E-01
  1 182 11 2.89707506E+00 1.09682632E+00 8.50787108E-02
  1 182 240 2.89707506E+00 9.38883866E-01 -3.46232867E-01
  1 183 11 2.89707506E+00 2.34260764E-02 -4.46095997E-01
  1 183 12 2.89707506E+00 1.26289632E+00 -1.75451833E-01
  1 183 240 2.89707506E+00 9.37008030E-01 -2.61718988E-01
  1 184 12 2.89707506E+00 8.90725279E-02 -4.75180149E-01
  1 184 13 2.89707506E+00 1.15220376E+00 -3.83856184E-01
  1 184 14 2.89707506E+00 3.57988845E-01 -3.83856184E-01
  1 184 240 2.89707506E+00 9.89810224E-01 -2.61718988E-01
  1 185 14 2.89707506E+00 7.83276148E-01 -5.66504115E-01
  1 185 15 2.89707506E+00 7.78157155E-01 -5.62027469E-01
  1 185 18 2.89707506E+00 8.76780560E-01 -2.97734541E-01
  1 185 240 2.89707506E+00 9.39029486E-01 -1.37828516E-01
  1 186 15 2.89707506E+00 5.94652879E-01 -2.62299153E-01
  1 186 16 2.89707506E+00 8.89837414E-01 1.44976093E-01
  1 186 17 2.89707506E+00 1.23306993E+00 1.44976093E-01
  1 186 18 2.89707506E+00 2.00384770E-01 -1.28850291E-01
  1 186 19 2.89707506E+00 1.26722316E+00 -1.77988142E-02
  1 186 20 2.89707506E+00 8.70201108E-02 2.45941310E-01
  1 186 240 2.89707506E+00 9.70501155E-01 -2.44795281E-01
  1 187 16 2.89707506E+00 3.18885247E-01 3.47851265E-01
  1 187 20 2.89707506E+00 1.17182410E+00 4.30661384E-02
  1 187 21 2.89707506E+00 2.34795353E-01 1.14597515E-01
  1 187 240 2.89707506E+00 9.50045665E-01 -2.61718988E-01
  1 188 21 2.89707506E+00 9.18878693E-01 -7.86364053E-02
  1 188 22 2.89707506E+00 7.74132988E-01 2.21261047E-01
  1 188 240 2.89707506E+00 9.38135306E-01 -3.46232867E-01
  1 189 22 2.89707506E+00 3.16082529E-01 -2.35775639E-02
  1 189 23 2.89707506E+00 1.10572154E+00 3.32530733E-02
  1 189 24 2.89707506E+00 3.04743608E-01 1.02805801E-01
  1 189 240 2.89707506E+00 9.36116864E-01 -5.53559329E-01
  1 190 24 2.89707506E+00 8.76596622E-01 -1.96922515E-01
  1 190 25 2.89707506E+00 6.24613605E-01 -2.09738308E-01
  1 190 239 2.89707506E+00 9.02211865E-01 -6.46130319E-01
  1 190 240 2.89707506E+00 5.64925596E-02 -6.88168941E-01
  1 191 25 2.89707506E+00 5.79745062E-01 -3.87801798E-01
  1 191 26 2.89707506E+00 9.33794913E-01 -1.34997351E-01
  1 191 239 2.89707506E+00 1.00976409E+00 1.26938763E-01
  1 192 26 2.89707506E+00 2.35503460E-01 -4.34725667E-01
  1 192 27 2.89707506E+00 1.13828164E+00 -4.34725667E-01
  1 192 28 2.89707506E+00 2.92404358E-01 -4.34725667E-01
  1 192 238 2.89707506E+00 2.40632675E-01 1.20516673E+00
  1 192 239 2.89707506E+00 8.86337119E-01 7.73490828E-01
  1 193 28 2.89707506E+00 7.82587070E-01 -7.34453984E-01
  1 193 29 2.89707506E+00 9.61048711E-01 -3.98554246E-01
  1 193 238 2.89707506E+00 1.16954491E+00 1.43015651E+00
  1 194 29 2.89707506E+00 1.00616612E+00 2.91820155E-01
  1 194 237 2.89707506E+00 1.14274351E+00 1.14816345E+00
  1 194 238 2.89707506E+00 1.39445360E-01 1.24120565E+00
  1 195 29 2.89707506E+00 1.06952025E+00 1.00073887E+00
  1 195 236 2.89707506E+00 9.51051315E-01 1.31014731E+00
  1 195 237 2.89707506E+00 2.35372709E-01 7.92338105E-01
  1 196 28 2.89707506E+00 9.81162752E-01 9.94739175E-01
  1 196 29 2.89707506E+00 3.56677179E-02 1.29463663E+00
  1 196 235 2.89707506E+00 4.77845943E-01 2.11648652E+00
  1 196 236 2.89707506E+00 6.11859653E-01 1.45709619E+00
  1 197 28 2.89707506E+00 1.01473601E+00 1.29018443E+00
  1 197 235 2.89707506E+00 1.04591115E+00 2.11648652E+00
  1 198 26 2.89707506E+00 3.18287561E-01 -2.82559280E-01
  1 198 27 2.89707506E+00 1.11095722E+00 8.02004227E-01
  1 198 28 2.89707506E+00 3.33952657E-01 1.34969064E+00
  1 198 234 2.89707506E+00 5.78565716E-01 1.78429891E+00
  1 198 235 2.89707506E+00 4.74714297E-01 2.40181815E+00
  1 199 25 2.89707506E+00 9.82533870E-01 -2.61718988E-01
  1 199 26 2.89707506E+00 6.75866912E-01 -2.99239691E-02
  1 199 234 2.89707506E+00 9.93847805E-01 1.89739762E+00
  1 200 25 2.89707506E+00 9.63171687E-01 -1.29166791E-01
  1 200 234 2.89707506E+00 1.00240962E+00 2.15438549E+00
  1 201 25 2.89707506E+00 1.01050314E+00 -8.91454148E-03
  1 201 233 2.89707506E+00 8.70123839E-01 1.41260132E+00
  1 201 234 2.89707506E+00 1.29249606E-01 1.48929074E+00
  1 202 25 2.89707506E+00 8.33885342E-01 1.13524035E-01
  1 202 26 2.89707506E+00 6.29830327E-01 -2.61718988E-01
  1 202 232 2.89707506E+00 7.84538910E-02 1.18518055E+00
  1 202 233 2.89707506E+00 1.08382808E+00 8.85283101E-01
  1 203 26 2.89707506E+00 4.99823610E-01 -3.08811994E-01
  1 203 27 2.89707506E+00 1.09651922E+00 -3.79100755E-01
  1 203 28 2.89707506E+00 1.46157469E-01 -3.79100755E-01
  1 203 231 2.89707506E+00 8.44350096E-02 8.51067782E-01
  1 203 232 2.89707506E+00 1.26094950E+00 8.85452237E-01
  1 204 28 2.89707506E+00 9.99450816E-01 -3.41854202E-01
  1 204 29 2.89707506E+00 3.85121479E-01 -4.54179158E-01
  1 204 230 2.89707506E+00 2.06654153E-01 4.27986478E-01
  1 204 231 2.89707506E+00 1.19735220E+00 5.48646504E-01
  1 205 28 2.89707506E+00 7.53850194E-01 5.74848091E-03
  1 205 29 2.89707506E+00 4.59177453E-01 -2.61718988E-01
  1 205 229 2.89707506E+00 4.76498910E-01 3.78600728E-01
  1 205 230 2.89707506E+00 1.04534755E+00 7.87032761E-02
  1 206 27 2.89707506E+00 5.44175704E-01 2.70968832E-03
  1 206 28 2.89707506E+00 5.74592215E-01 1.07959817E-01
  1 206 228 2.89707506E+00 8.06089718E-01 6.78498181E-01
  1 206 229 2.89707506E+00 6.74259466E-01 3.78600728E-01
  1 207 27 2.89707506E+00 9.45838092E-01 5.13276534E-01
  1 207 227 2.89707506E+00 8.65935537E-01 9.78395633E-01
  1 207 228 2.89707506E+00 4.78009292E-01 6.07205444E-01
  1 208 27 2.89707506E+00 9.85074082E-01 2.55753549E-01
  1 208 226 2.89707506E+00 8.65589297E-01 1.29437953E+00
  1 208 227 2.89707506E+00 5.00476208E-01 9.07272033E-01
  1 209 27 2.89707506E+00 1.76174227E-01 -4.39747670E-02
  1 209 28 2.89707506E+00 1.14657282E+00 -1.18610082E-01
  1 209 225 2.89707506E+00 7.25017351E-01 1.84937936E+00
  1 209 226 2.89707506E+00 4.54768134E-01 1.29437953E+00
  1 210 28 2.89707506E+00 1.39685876E-01 -2.61718988E-01
  1 210 29 2.89707506E+00 1.22488744E+00 -3.43703083E-01
  1 210 30 2.89707506E+00 8.28466458E-02 -3.16160774E-01
  1 210 40 2.89707506E+00 4.17220381E-01 -1.07275584E+00
  1 210 41 2.89707506E+00 9.45838131E-01 -1.37265329E+00
  1 210 42 2.89707506E+00 9.86313492E-01 -1.34800108E+00