# File generated by Flopy version 3.4.3 on 05/26/2026 at 20:04:54.
BEGIN options
  READASARRAYS
  SAVE_FLOWS
END options

BEGIN period  1
  recharge
    CONSTANT  4.11000000E-04
END period  1

