# File generated by Flopy version 3.4.3 on 05/26/2026 at 20:04:54.
BEGIN options
  SAVE_FLOWS
END options

BEGIN dimensions
  MAXBOUND  1572
END dimensions

BEGIN period  1
  1 1 293       0.00000000
  1 2 292       0.00000000
  1 2 293       0.00000000
  1 2 294       0.00000000
  1 3 291       0.00000000
  1 3 292       0.00000000
  1 3 293       0.00000000
  1 3 294       0.00000000
  1 4 290       0.00000000
  1 4 291       0.00000000
  1 4 292       0.00000000
  1 4 293       0.00000000
  1 4 294       0.00000000
  1 4 295       0.00000000
  1 5 289       0.00000000
  1 5 290       0.00000000
  1 5 291       0.00000000
  1 5 292       0.00000000
  1 5 293       0.00000000
  1 5 294       0.00000000
  1 5 295       0.00000000
  1 5 296       0.00000000
  1 6 288       0.00000000
  1 6 289       0.00000000
  1 6 290       0.00000000
  1 6 291       0.00000000
  1 6 292       0.00000000
  1 6 293       0.00000000
  1 6 294       0.00000000
  1 6 295       0.00000000
  1 6 296       0.00000000
  1 6 297       0.00000000
  1 7 287       0.00000000
  1 7 288       0.00000000
  1 7 289       0.00000000
  1 7 290       0.00000000
  1 7 291       0.00000000
  1 7 292       0.00000000
  1 7 293       0.00000000
  1 7 294       0.00000000
  1 7 295       0.00000000
  1 7 296       0.00000000
  1 7 297       0.00000000
  1 7 298       0.00000000
  1 8 286       0.00000000
  1 8 287       0.00000000
  1 8 288       0.00000000
  1 8 289       0.00000000
  1 8 290       0.00000000
  1 8 291       0.00000000
  1 8 292       0.00000000
  1 8 293       0.00000000
  1 8 294       0.00000000
  1 8 295       0.00000000
  1 8 296       0.00000000
  1 8 297       0.00000000
  1 8 298       0.00000000
  1 8 299       0.00000000
  1 9 285       0.00000000
  1 9 286       0.00000000
  1 9 287       0.00000000
  1 9 288       0.00000000
  1 9 289       0.00000000
  1 9 290       0.00000000
  1 9 291       0.00000000
  1 9 292       0.00000000
  1 9 293       0.00000000
  1 9 294       0.00000000
  1 9 295       0.00000000
  1 9 296       0.00000000
  1 9 297       0.00000000
  1 9 298       0.00000000
  1 9 299       0.00000000
  1 10 284       0.00000000
  1 10 285       0.00000000
  1 10 286       0.00000000
  1 10 287       0.00000000
  1 10 288       0.00000000
  1 10 289       0.00000000
  1 10 290       0.00000000
  1 10 291       0.00000000
  1 10 292       0.00000000
  1 10 293       0.00000000
  1 10 294       0.00000000
  1 10 295       0.00000000
  1 10 296       0.00000000
  1 10 297       0.00000000
  1 10 298       0.00000000
  1 10 299       0.00000000
  1 10 300       0.00000000
  1 11 283       0.00000000
  1 11 284       0.00000000
  1 11 285       0.00000000
  1 11 286       0.00000000
  1 11 287       0.00000000
  1 11 288       0.00000000
  1 11 289       0.00000000
  1 11 290       0.00000000
  1 11 291       0.00000000
  1 11 292       0.00000000
  1 11 293       0.00000000
  1 11 294       0.00000000
  1 11 295       0.00000000
  1 11 296       0.00000000
  1 11 297       0.00000000
  1 11 298       0.00000000
  1 11 299       0.00000000
  1 11 300       0.00000000
  1 11 301       0.00000000
  1 12 283       0.00000000
  1 12 284       0.00000000
  1 12 285       0.00000000
  1 12 286       0.00000000
  1 12 287       0.00000000
  1 12 288       0.00000000
  1 12 289       0.00000000
  1 12 290       0.00000000
  1 12 291       0.00000000
  1 12 292       0.00000000
  1 12 293       0.00000000
  1 12 294       0.00000000
  1 12 295       0.00000000
  1 12 296       0.00000000
  1 12 297       0.00000000
  1 12 298       0.00000000
  1 12 299       0.00000000
  1 12 300       0.00000000
  1 12 301       0.00000000
  1 12 302       0.00000000
  1 13 282       0.00000000
  1 13 283       0.00000000
  1 13 284       0.00000000
  1 13 285       0.00000000
  1 13 286       0.00000000
  1 13 287       0.00000000
  1 13 288       0.00000000
  1 13 289       0.00000000
  1 13 290       0.00000000
  1 13 291       0.00000000
  1 13 292       0.00000000
  1 13 293       0.00000000
  1 13 294       0.00000000
  1 13 295       0.00000000
  1 13 296       0.00000000
  1 13 297       0.00000000
  1 13 298       0.00000000
  1 13 299       0.00000000
  1 13 300       0.00000000
  1 13 301       0.00000000
  1 13 302       0.00000000
  1 13 303       0.00000000
  1 14 281       0.00000000
  1 14 282       0.00000000
  1 14 283       0.00000000
  1 14 284       0.00000000
  1 14 285       0.00000000
  1 14 286       0.00000000
  1 14 287       0.00000000
  1 14 288       0.00000000
  1 14 289       0.00000000
  1 14 290       0.00000000
  1 14 291       0.00000000
  1 14 292       0.00000000
  1 14 293       0.00000000
  1 14 294       0.00000000
  1 14 295       0.00000000
  1 14 296       0.00000000
  1 14 297       0.00000000
  1 14 298       0.00000000
  1 14 299       0.00000000
  1 14 300       0.00000000
  1 14 301       0.00000000
  1 14 302       0.00000000
  1 14 303       0.00000000
  1 14 304       0.00000000
  1 15 280       0.00000000
  1 15 281       0.00000000
  1 15 282       0.00000000
  1 15 283       0.00000000
  1 15 284       0.00000000
  1 15 285       0.00000000
  1 15 286       0.00000000
  1 15 287       0.00000000
  1 15 288       0.00000000
  1 15 289       0.00000000
  1 15 290       0.00000000
  1 15 291       0.00000000
  1 15 292       0.00000000
  1 15 293       0.00000000
  1 15 294       0.00000000
  1 15 295       0.00000000
  1 15 296       0.00000000
  1 15 297       0.00000000
  1 15 298       0.00000000
  1 15 299       0.00000000
  1 15 300       0.00000000
  1 15 301       0.00000000
  1 15 302       0.00000000
  1 15 303       0.00000000
  1 15 304       0.00000000
  1 16 279       0.00000000
  1 16 280       0.00000000
  1 16 281       0.00000000
  1 16 282       0.00000000
  1 16 283       0.00000000
  1 16 284       0.00000000
  1 16 285       0.00000000
  1 16 286       0.00000000
  1 16 287       0.00000000
  1 16 288       0.00000000
  1 16 289       0.00000000
  1 16 290       0.00000000
  1 16 291       0.00000000
  1 16 292       0.00000000
  1 16 293       0.00000000
  1 16 294       0.00000000
  1 16 295       0.00000000
  1 16 296       0.00000000
  1 16 297       0.00000000
  1 16 298       0.00000000
  1 16 299       0.00000000
  1 16 300       0.00000000
  1 16 301       0.00000000
  1 16 302       0.00000000
  1 16 303       0.00000000
  1 16 304       0.00000000
  1 16 305       0.00000000
  1 17 278       0.00000000
  1 17 279       0.00000000
  1 17 280       0.00000000
  1 17 281       0.00000000
  1 17 282       0.00000000
  1 17 283       0.00000000
  1 17 284       0.00000000
  1 17 285       0.00000000
  1 17 286       0.00000000
  1 17 287       0.00000000
  1 17 288       0.00000000
  1 17 289       0.00000000
  1 17 290       0.00000000
  1 17 291       0.00000000
  1 17 292       0.00000000
  1 17 293       0.00000000
  1 17 294       0.00000000
  1 17 295       0.00000000
  1 17 296       0.00000000
  1 17 297       0.00000000
  1 17 298       0.00000000
  1 17 299       0.00000000
  1 17 300       0.00000000
  1 17 301       0.00000000
  1 17 302       0.00000000
  1 17 303       0.00000000
  1 17 304       0.00000000
  1 17 305       0.00000000
  1 17 306       0.00000000
  1 18 277       0.00000000
  1 18 278       0.00000000
  1 18 279       0.00000000
  1 18 280       0.00000000
  1 18 281       0.00000000
  1 18 282       0.00000000
  1 18 283       0.00000000
  1 18 284       0.00000000
  1 18 285       0.00000000
  1 18 286       0.00000000
  1 18 287       0.00000000
  1 18 288       0.00000000
  1 18 289       0.00000000
  1 18 290       0.00000000
  1 18 291       0.00000000
  1 18 292       0.00000000
  1 18 293       0.00000000
  1 18 294       0.00000000
  1 18 295       0.00000000
  1 18 296       0.00000000
  1 18 297       0.00000000
  1 18 298       0.00000000
  1 18 299       0.00000000
  1 18 300       0.00000000
  1 18 301       0.00000000
  1 18 302       0.00000000
  1 18 303       0.00000000
  1 18 304       0.00000000
  1 18 305       0.00000000
  1 18 306       0.00000000
  1 18 307       0.00000000
  1 19 276       0.00000000
  1 19 277       0.00000000
  1 19 278       0.00000000
  1 19 279       0.00000000
  1 19 280       0.00000000
  1 19 281       0.00000000
  1 19 282       0.00000000
  1 19 283       0.00000000
  1 19 284       0.00000000
  1 19 285       0.00000000
  1 19 286       0.00000000
  1 19 287       0.00000000
  1 19 288       0.00000000
  1 19 289       0.00000000
  1 19 290       0.00000000
  1 19 291       0.00000000
  1 19 292       0.00000000
  1 19 293       0.00000000
  1 19 294       0.00000000
  1 19 295       0.00000000
  1 19 296       0.00000000
  1 19 297       0.00000000
  1 19 298       0.00000000
  1 19 299       0.00000000
  1 19 300       0.00000000
  1 19 301       0.00000000
  1 19 302       0.00000000
  1 19 303       0.00000000
  1 19 304       0.00000000
  1 19 305       0.00000000
  1 19 306       0.00000000
  1 19 307       0.00000000
  1 19 308       0.00000000
  1 20 275       0.00000000
  1 20 276       0.00000000
  1 20 277       0.00000000
  1 20 278       0.00000000
  1 20 279       0.00000000
  1 20 280       0.00000000
  1 20 281       0.00000000
  1 20 282       0.00000000
  1 20 283       0.00000000
  1 20 284       0.00000000
  1 20 285       0.00000000
  1 20 286       0.00000000
  1 20 287       0.00000000
  1 20 288       0.00000000
  1 20 289       0.00000000
  1 20 290       0.00000000
  1 20 291       0.00000000
  1 20 292       0.00000000
  1 20 293       0.00000000
  1 20 294       0.00000000
  1 20 295       0.00000000
  1 20 296       0.00000000
  1 20 297       0.00000000
  1 20 298       0.00000000
  1 20 299       0.00000000
  1 20 300       0.00000000
  1 20 301       0.00000000
  1 20 302       0.00000000
  1 20 303       0.00000000
  1 20 304       0.00000000
  1 20 305       0.00000000
  1 20 306       0.00000000
  1 20 307       0.00000000
  1 20 308       0.00000000
  1 20 309       0.00000000
  1 21 274       0.00000000
  1 21 275       0.00000000
  1 21 276       0.00000000
  1 21 277       0.00000000
  1 21 278       0.00000000
  1 21 279       0.00000000
  1 21 280       0.00000000
  1 21 281       0.00000000
  1 21 282       0.00000000
  1 21 283       0.00000000
  1 21 284       0.00000000
  1 21 285       0.00000000
  1 21 286       0.00000000
  1 21 287       0.00000000
  1 21 288       0.00000000
  1 21 289       0.00000000
  1 21 290       0.00000000
  1 21 291       0.00000000
  1 21 292       0.00000000
  1 21 293       0.00000000
  1 21 294       0.00000000
  1 21 295       0.00000000
  1 21 296       0.00000000
  1 21 297       0.00000000
  1 21 298       0.00000000
  1 21 299       0.00000000
  1 21 300       0.00000000
  1 21 301       0.00000000
  1 21 302       0.00000000
  1 21 303       0.00000000
  1 21 304       0.00000000
  1 21 305       0.00000000
  1 21 306       0.00000000
  1 21 307       0.00000000
  1 21 308       0.00000000
  1 21 309       0.00000000
  1 22 273       0.00000000
  1 22 274       0.00000000
  1 22 275       0.00000000
  1 22 276       0.00000000
  1 22 277       0.00000000
  1 22 278       0.00000000
  1 22 279       0.00000000
  1 22 280       0.00000000
  1 22 281       0.00000000
  1 22 282       0.00000000
  1 22 283       0.00000000
  1 22 284       0.00000000
  1 22 285       0.00000000
  1 22 286       0.00000000
  1 22 287       0.00000000
  1 22 288       0.00000000
  1 22 289       0.00000000
  1 22 290       0.00000000
  1 22 291       0.00000000
  1 22 292       0.00000000
  1 22 293       0.00000000
  1 22 294       0.00000000
  1 22 295       0.00000000
  1 22 296       0.00000000
  1 22 297       0.00000000
  1 22 298       0.00000000
  1 22 299       0.00000000
  1 22 300       0.00000000
  1 22 301       0.00000000
  1 22 302       0.00000000
  1 22 303       0.00000000
  1 22 304       0.00000000
  1 22 305       0.00000000
  1 22 306       0.00000000
  1 22 307       0.00000000
  1 22 308       0.00000000
  1 22 309       0.00000000
  1 22 310       0.00000000
  1 23 272       0.00000000
  1 23 273       0.00000000
  1 23 274       0.00000000
  1 23 275       0.00000000
  1 23 276       0.00000000
  1 23 277       0.00000000
  1 23 278       0.00000000
  1 23 279       0.00000000
  1 23 280       0.00000000
  1 23 281       0.00000000
  1 23 282       0.00000000
  1 23 283       0.00000000
  1 23 284       0.00000000
  1 23 285       0.00000000
  1 23 286       0.00000000
  1 23 287       0.00000000
  1 23 288       0.00000000
  1 23 289       0.00000000
  1 23 290       0.00000000
  1 23 291       0.00000000
  1 23 292       0.00000000
  1 23 293       0.00000000
  1 23 294       0.00000000
  1 23 295       0.00000000
  1 23 296       0.00000000
  1 23 297       0.00000000
  1 23 298       0.00000000
  1 23 299       0.00000000
  1 23 300       0.00000000
  1 23 301       0.00000000
  1 23 302       0.00000000
  1 23 303       0.00000000
  1 23 304       0.00000000
  1 23 305       0.00000000
  1 23 306       0.00000000
  1 23 307       0.00000000
  1 23 308       0.00000000
  1 23 309       0.00000000
  1 23 310       0.00000000
  1 23 311       0.00000000
  1 24 272       0.00000000
  1 24 273       0.00000000
  1 24 274       0.00000000
  1 24 275       0.00000000
  1 24 276       0.00000000
  1 24 277       0.00000000
  1 24 278       0.00000000
  1 24 279       0.00000000
  1 24 280       0.00000000
  1 24 281       0.00000000
  1 24 282       0.00000000
  1 24 283       0.00000000
  1 24 284       0.00000000
  1 24 285       0.00000000
  1 24 286       0.00000000
  1 24 287       0.00000000
  1 24 288       0.00000000
  1 24 289       0.00000000
  1 24 290       0.00000000
  1 24 291       0.00000000
  1 24 292       0.00000000
  1 24 293       0.00000000
  1 24 294       0.00000000
  1 24 295       0.00000000
  1 24 296       0.00000000
  1 24 297       0.00000000
  1 24 298       0.00000000
  1 24 299       0.00000000
  1 24 300       0.00000000
  1 24 301       0.00000000
  1 24 302       0.00000000
  1 24 303       0.00000000
  1 24 304       0.00000000
  1 24 305       0.00000000
  1 24 306       0.00000000
  1 24 307       0.00000000
  1 24 308       0.00000000
  1 24 309       0.00000000
  1 24 310       0.00000000
  1 24 311       0.00000000
  1 24 312       0.00000000
  1 25 271       0.00000000
  1 25 272       0.00000000
  1 25 273       0.00000000
  1 25 274       0.00000000
  1 25 275       0.00000000
  1 25 276       0.00000000
  1 25 277       0.00000000
  1 25 278       0.00000000
  1 25 279       0.00000000
  1 25 280       0.00000000
  1 25 281       0.00000000
  1 25 282       0.00000000
  1 25 283       0.00000000
  1 25 284       0.00000000
  1 25 285       0.00000000
  1 25 286       0.00000000
  1 25 287       0.00000000
  1 25 288       0.00000000
  1 25 289       0.00000000
  1 25 290       0.00000000
  1 25 291       0.00000000
  1 25 292       0.00000000
  1 25 293       0.00000000
  1 25 294       0.00000000
  1 25 295       0.00000000
  1 25 296       0.00000000
  1 25 297       0.00000000
  1 25 298       0.00000000
  1 25 299       0.00000000
  1 25 300       0.00000000
  1 25 301       0.00000000
  1 25 302       0.00000000
  1 25 303       0.00000000
  1 25 304       0.00000000
  1 25 305       0.00000000
  1 25 306       0.00000000
  1 25 307       0.00000000
  1 25 308       0.00000000
  1 25 309       0.00000000
  1 25 310       0.00000000
  1 25 311       0.00000000
  1 25 312       0.00000000
  1 25 313       0.00000000
  1 26 270       0.00000000
  1 26 271       0.00000000
  1 26 272       0.00000000
  1 26 273       0.00000000
  1 26 274       0.00000000
  1 26 275       0.00000000
  1 26 276       0.00000000
  1 26 277       0.00000000
  1 26 278       0.00000000
  1 26 279       0.00000000
  1 26 280       0.00000000
  1 26 281       0.00000000
  1 26 282       0.00000000
  1 26 283       0.00000000
  1 26 284       0.00000000
  1 26 285       0.00000000
  1 26 286       0.00000000
  1 26 287       0.00000000
  1 26 288       0.00000000
  1 26 289       0.00000000
  1 26 290       0.00000000
  1 26 291       0.00000000
  1 26 292       0.00000000
  1 26 293       0.00000000
  1 26 294       0.00000000
  1 26 295       0.00000000
  1 26 296       0.00000000
  1 26 297       0.00000000
  1 26 298       0.00000000
  1 26 299       0.00000000
  1 26 300       0.00000000
  1 26 301       0.00000000
  1 26 302       0.00000000
  1 26 303       0.00000000
  1 26 304       0.00000000
  1 26 305       0.00000000
  1 26 306       0.00000000
  1 26 307       0.00000000
  1 26 308       0.00000000
  1 26 309       0.00000000
  1 26 310       0.00000000
  1 26 311       0.00000000
  1 26 312       0.00000000
  1 26 313       0.00000000
  1 26 314       0.00000000
  1 27 269       0.00000000
  1 27 270       0.00000000
  1 27 271       0.00000000
  1 27 272       0.00000000
  1 27 273       0.00000000
  1 27 274       0.00000000
  1 27 275       0.00000000
  1 27 276       0.00000000
  1 27 277       0.00000000
  1 27 278       0.00000000
  1 27 279       0.00000000
  1 27 280       0.00000000
  1 27 281       0.00000000
  1 27 282       0.00000000
  1 27 283       0.00000000
  1 27 284       0.00000000
  1 27 285       0.00000000
  1 27 286       0.00000000
  1 27 287       0.00000000
  1 27 288       0.00000000
  1 27 289       0.00000000
  1 27 290       0.00000000
  1 27 291       0.00000000
  1 27 292       0.00000000
  1 27 293       0.00000000
  1 27 294       0.00000000
  1 27 295       0.00000000
  1 27 296       0.00000000
  1 27 297       0.00000000
  1 27 298       0.00000000
  1 27 299       0.00000000
  1 27 300       0.00000000
  1 27 301       0.00000000
  1 27 302       0.00000000
  1 27 303       0.00000000
  1 27 304       0.00000000
  1 27 305       0.00000000
  1 27 306       0.00000000
  1 27 307       0.00000000
  1 27 308       0.00000000
  1 27 309       0.00000000
  1 27 310       0.00000000
  1 27 311       0.00000000
  1 27 312       0.00000000
  1 27 313       0.00000000
  1 27 314       0.00000000
  1 27 315       0.00000000
  1 28 268       0.00000000
  1 28 269       0.00000000
  1 28 270       0.00000000
  1 28 271       0.00000000
  1 28 272       0.00000000
  1 28 273       0.00000000
  1 28 274       0.00000000
  1 28 275       0.00000000
  1 28 276       0.00000000
  1 28 277       0.00000000
  1 28 278       0.00000000
  1 28 279       0.00000000
  1 28 280       0.00000000
  1 28 281       0.00000000
  1 28 282       0.00000000
  1 28 283       0.00000000
  1 28 284       0.00000000
  1 28 285       0.00000000
  1 28 286       0.00000000
  1 28 287       0.00000000
  1 28 288       0.00000000
  1 28 289       0.00000000
  1 28 290       0.00000000
  1 28 291       0.00000000
  1 28 292       0.00000000
  1 28 293       0.00000000
  1 28 294       0.00000000
  1 28 295       0.00000000
  1 28 296       0.00000000
  1 28 297       0.00000000
  1 28 298       0.00000000
  1 28 299       0.00000000
  1 28 300       0.00000000
  1 28 301       0.00000000
  1 28 302       0.00000000
  1 28 303       0.00000000
  1 28 304       0.00000000
  1 28 305       0.00000000
  1 28 306       0.00000000
  1 28 307       0.00000000
  1 28 308       0.00000000
  1 28 309       0.00000000
  1 28 310       0.00000000
  1 28 311       0.00000000
  1 28 312       0.00000000
  1 28 313       0.00000000
  1 28 314       0.00000000
  1 28 315       0.00000000
  1 29 265       0.00000000
  1 29 266       0.00000000
  1 29 267       0.00000000
  1 29 268       0.00000000
  1 29 269       0.00000000
  1 29 270       0.00000000
  1 29 271       0.00000000
  1 29 272       0.00000000
  1 29 273       0.00000000
  1 29 274       0.00000000
  1 29 275       0.00000000
  1 29 276       0.00000000
  1 29 277       0.00000000
  1 29 278       0.00000000
  1 29 279       0.00000000
  1 29 280       0.00000000
  1 29 281       0.00000000
  1 29 282       0.00000000
  1 29 283       0.00000000
  1 29 284       0.00000000
  1 29 285       0.00000000
  1 29 286       0.00000000
  1 29 287       0.00000000
  1 29 288       0.00000000
  1 29 289       0.00000000
  1 29 290       0.00000000
  1 29 291       0.00000000
  1 29 292       0.00000000
  1 29 293       0.00000000
  1 29 294       0.00000000
  1 29 295       0.00000000
  1 29 296       0.00000000
  1 29 297       0.00000000
  1 29 298       0.00000000
  1 29 299       0.00000000
  1 29 300       0.00000000
  1 29 301       0.00000000
  1 29 302       0.00000000
  1 29 303       0.00000000
  1 29 304       0.00000000
  1 29 305       0.00000000
  1 29 306       0.00000000
  1 29 307       0.00000000
  1 29 308       0.00000000
  1 29 309       0.00000000
  1 29 310       0.00000000
  1 29 311       0.00000000
  1 29 312       0.00000000
  1 29 313       0.00000000
  1 29 314       0.00000000
  1 29 315       0.00000000
  1 29 316       0.00000000
  1 30 266       0.00000000
  1 30 267       0.00000000
  1 30 268       0.00000000
  1 30 269       0.00000000
  1 30 270       0.00000000
  1 30 271       0.00000000
  1 30 272       0.00000000
  1 30 273       0.00000000
  1 30 274       0.00000000
  1 30 275       0.00000000
  1 30 276       0.00000000
  1 30 277       0.00000000
  1 30 278       0.00000000
  1 30 279       0.00000000
  1 30 280       0.00000000
  1 30 281       0.00000000
  1 30 282       0.00000000
  1 30 283       0.00000000
  1 30 284       0.00000000
  1 30 285       0.00000000
  1 30 286       0.00000000
  1 30 287       0.00000000
  1 30 288       0.00000000
  1 30 289       0.00000000
  1 30 290       0.00000000
  1 30 291       0.00000000
  1 30 292       0.00000000
  1 30 293       0.00000000
  1 30 294       0.00000000
  1 30 295       0.00000000
  1 30 296       0.00000000
  1 30 297       0.00000000
  1 30 298       0.00000000
  1 30 299       0.00000000
  1 30 300       0.00000000
  1 30 301       0.00000000
  1 30 302       0.00000000
  1 30 303       0.00000000
  1 30 304       0.00000000
  1 30 305       0.00000000
  1 30 306       0.00000000
  1 30 307       0.00000000
  1 30 308       0.00000000
  1 30 309       0.00000000
  1 30 310       0.00000000
  1 30 311       0.00000000
  1 30 312       0.00000000
  1 30 313       0.00000000
  1 30 314       0.00000000
  1 30 315       0.00000000
  1 30 316       0.00000000
  1 30 317       0.00000000
  1 31 270       0.00000000
  1 31 271       0.00000000
  1 31 272       0.00000000
  1 31 273       0.00000000
  1 31 274       0.00000000
  1 31 275       0.00000000
  1 31 276       0.00000000
  1 31 277       0.00000000
  1 31 278       0.00000000
  1 31 279       0.00000000
  1 31 280       0.00000000
  1 31 281       0.00000000
  1 31 282       0.00000000
  1 31 283       0.00000000
  1 31 284       0.00000000
  1 31 285       0.00000000
  1 31 286       0.00000000
  1 31 287       0.00000000
  1 31 288       0.00000000
  1 31 289       0.00000000
  1 31 290       0.00000000
  1 31 291       0.00000000
  1 31 292       0.00000000
  1 31 293       0.00000000
  1 31 294       0.00000000
  1 31 295       0.00000000
  1 31 296       0.00000000
  1 31 297       0.00000000
  1 31 298       0.00000000
  1 31 299       0.00000000
  1 31 300       0.00000000
  1 31 301       0.00000000
  1 31 302       0.00000000
  1 31 303       0.00000000
  1 31 304       0.00000000
  1 31 305       0.00000000
  1 31 306       0.00000000
  1 31 307       0.00000000
  1 31 308       0.00000000
  1 31 309       0.00000000
  1 31 310       0.00000000
  1 31 311       0.00000000
  1 31 312       0.00000000
  1 31 313       0.00000000
  1 31 314       0.00000000
  1 31 315       0.00000000
  1 31 316       0.00000000
  1 31 317       0.00000000
  1 31 318       0.00000000
  1 32 272       0.00000000
  1 32 273       0.00000000
  1 32 274       0.00000000
  1 32 275       0.00000000
  1 32 276       0.00000000
  1 32 277       0.00000000
  1 32 278       0.00000000
  1 32 279       0.00000000
  1 32 280       0.00000000
  1 32 281       0.00000000
  1 32 282       0.00000000
  1 32 283       0.00000000
  1 32 284       0.00000000
  1 32 285       0.00000000
  1 32 286       0.00000000
  1 32 287       0.00000000
  1 32 288       0.00000000
  1 32 289       0.00000000
  1 32 290       0.00000000
  1 32 291       0.00000000
  1 32 292       0.00000000
  1 32 293       0.00000000
  1 32 294       0.00000000
  1 32 295       0.00000000
  1 32 296       0.00000000
  1 32 297       0.00000000
  1 32 298       0.00000000
  1 32 299       0.00000000
  1 32 300       0.00000000
  1 32 301       0.00000000
  1 32 302       0.00000000
  1 32 303       0.00000000
  1 32 304       0.00000000
  1 32 305       0.00000000
  1 32 306       0.00000000
  1 32 307       0.00000000
  1 32 308       0.00000000
  1 32 309       0.00000000
  1 32 310       0.00000000
  1 32 311       0.00000000
  1 32 312       0.00000000
  1 32 313       0.00000000
  1 32 314       0.00000000
  1 32 315       0.00000000
  1 32 316       0.00000000
  1 32 317       0.00000000
  1 32 318       0.00000000
  1 32 319       0.00000000
  1 33 275       0.00000000
  1 33 276       0.00000000
  1 33 277       0.00000000
  1 33 278       0.00000000
  1 33 279       0.00000000
  1 33 280       0.00000000
  1 33 281       0.00000000
  1 33 282       0.00000000
  1 33 283       0.00000000
  1 33 284       0.00000000
  1 33 285       0.00000000
  1 33 286       0.00000000
  1 33 287       0.00000000
  1 33 288       0.00000000
  1 33 289       0.00000000
  1 33 290       0.00000000
  1 33 291       0.00000000
  1 33 292       0.00000000
  1 33 293       0.00000000
  1 33 294       0.00000000
  1 33 295       0.00000000
  1 33 296       0.00000000
  1 33 297       0.00000000
  1 33 298       0.00000000
  1 33 299       0.00000000
  1 33 300       0.00000000
  1 33 301       0.00000000
  1 33 302       0.00000000
  1 33 303       0.00000000
  1 33 304       0.00000000
  1 33 305       0.00000000
  1 33 306       0.00000000
  1 33 307       0.00000000
  1 33 308       0.00000000
  1 33 309       0.00000000
  1 33 310       0.00000000
  1 33 311       0.00000000
  1 33 312       0.00000000
  1 33 313       0.00000000
  1 33 314       0.00000000
  1 33 315       0.00000000
  1 33 316       0.00000000
  1 33 317       0.00000000
  1 33 318       0.00000000
  1 33 319       0.00000000
  1 33 320       0.00000000
  1 34 276       0.00000000
  1 34 277       0.00000000
  1 34 278       0.00000000
  1 34 279       0.00000000
  1 34 280       0.00000000
  1 34 281       0.00000000
  1 34 282       0.00000000
  1 34 283       0.00000000
  1 34 284       0.00000000
  1 34 285       0.00000000
  1 34 286       0.00000000
  1 34 287       0.00000000
  1 34 288       0.00000000
  1 34 289       0.00000000
  1 34 290       0.00000000
  1 34 291       0.00000000
  1 34 292       0.00000000
  1 34 293       0.00000000
  1 34 294       0.00000000
  1 34 295       0.00000000
  1 34 296       0.00000000
  1 34 297       0.00000000
  1 34 298       0.00000000
  1 34 299       0.00000000
  1 34 300       0.00000000
  1 34 301       0.00000000
  1 34 302       0.00000000
  1 34 303       0.00000000
  1 34 304       0.00000000
  1 34 305       0.00000000
  1 34 306       0.00000000
  1 34 307       0.00000000
  1 34 308       0.00000000
  1 34 309       0.00000000
  1 34 310       0.00000000
  1 34 311       0.00000000
  1 34 312       0.00000000
  1 34 313       0.00000000
  1 34 314       0.00000000
  1 34 315       0.00000000
  1 34 316       0.00000000
  1 34 317       0.00000000
  1 34 318       0.00000000
  1 34 319       0.00000000
  1 34 320       0.00000000
  1 35 276       0.00000000
  1 35 277       0.00000000
  1 35 278       0.00000000
  1 35 279       0.00000000
  1 35 280       0.00000000
  1 35 281       0.00000000
  1 35 282       0.00000000
  1 35 283       0.00000000
  1 35 284       0.00000000
  1 35 285       0.00000000
  1 35 286       0.00000000
  1 35 287       0.00000000
  1 35 288       0.00000000
  1 35 289       0.00000000
  1 35 290       0.00000000
  1 35 291       0.00000000
  1 35 292       0.00000000
  1 35 293       0.00000000
  1 35 294       0.00000000
  1 35 295       0.00000000
  1 35 296       0.00000000
  1 35 297       0.00000000
  1 35 298       0.00000000
  1 35 299       0.00000000
  1 35 300       0.00000000
  1 35 301       0.00000000
  1 35 302       0.00000000
  1 35 303       0.00000000
  1 35 304       0.00000000
  1 35 305       0.00000000
  1 35 306       0.00000000
  1 35 307       0.00000000
  1 35 308       0.00000000
  1 35 309       0.00000000
  1 35 310       0.00000000
  1 35 311       0.00000000
  1 35 312       0.00000000
  1 35 313       0.00000000
  1 35 314       0.00000000
  1 35 315       0.00000000
  1 35 316       0.00000000
  1 35 317       0.00000000
  1 35 318       0.00000000
  1 35 319       0.00000000
  1 35 320       0.00000000
  1 35 321       0.00000000
  1 36 277       0.00000000
  1 36 278       0.00000000
  1 36 279       0.00000000
  1 36 280       0.00000000
  1 36 281       0.00000000
  1 36 282       0.00000000
  1 36 283       0.00000000
  1 36 284       0.00000000
  1 36 285       0.00000000
  1 36 286       0.00000000
  1 36 287       0.00000000
  1 36 288       0.00000000
  1 36 289       0.00000000
  1 36 290       0.00000000
  1 36 291       0.00000000
  1 36 292       0.00000000
  1 36 293       0.00000000
  1 36 294       0.00000000
  1 36 295       0.00000000
  1 36 296       0.00000000
  1 36 297       0.00000000
  1 36 298       0.00000000
  1 36 299       0.00000000
  1 36 300       0.00000000
  1 36 301       0.00000000
  1 36 302       0.00000000
  1 36 303       0.00000000
  1 36 304       0.00000000
  1 36 305       0.00000000
  1 36 306       0.00000000
  1 36 307       0.00000000
  1 36 308       0.00000000
  1 36 309       0.00000000
  1 36 310       0.00000000
  1 36 311       0.00000000
  1 36 312       0.00000000