# File generated by Flopy version 3.4.3 on 05/26/2026 at 20:04:55.
BEGIN options
  PRINT_FLOWS
  SAVE_FLOWS
END options

BEGIN dimensions
  MAXBOUND  6
END dimensions

BEGIN period  1
  1 35 273       0.00000000
  1 36 273       0.00000000
  1 40 276       0.00000000
  1 43 278       0.00000000
  1 46 280       0.00000000
  1 47 279       0.00000000
END period  1

BEGIN period  2
  1 35 273       0.00000000
  1 36 273       0.00000000
  1 40 276       0.00000000
  1 43 278       0.00000000
  1 46 280       0.00000000
  1 47 279       0.00000000
END period  2

BEGIN period  3
  1 35 273       0.00000000
  1 36 273       0.00000000
  1 40 276       0.00000000
  1 43 278       0.00000000
  1 46 280       0.00000000
  1 47 279       0.00000000
END period  3

BEGIN period  4
  1 35 273       0.00000000
  1 36 273       0.00000000
  1 40 276       0.00000000
  1 43 278       0.00000000
  1 46 280       0.00000000
  1 47 279       0.00000000
END period  4

BEGIN period  5
  1 35 273       0.00000000
  1 36 273       0.00000000
  1 40 276       0.00000000
  1 43 278       0.00000000
  1 46 280       0.00000000
  1 47 279       0.00000000
END period  5

BEGIN period  6
  1 35 273       0.00000000
  1 36 273       0.00000000
  1 40 276       0.00000000
  1 43 278       0.00000000
  1 46 280       0.00000000
  1 47 279       0.00000000
END period  6

BEGIN period  7
  1 35 273       0.00000000
  1 36 273       0.00000000
  1 40 276       0.00000000
  1 43 278       0.00000000
  1 46 280       0.00000000
  1 47 279       0.00000000
END period  7

BEGIN period  8
  1 35 273       0.00000000
  1 36 273       0.00000000
  1 40 276       0.00000000
  1 43 278       0.00000000
  1 46 280       0.00000000
  1 47 279       0.00000000
END period  8

BEGIN period  9
  1 35 273       0.00000000
  1 36 273       0.00000000
  1 40 276       0.00000000
  1 43 278       0.00000000
  1 46 280       0.00000000
  1 47 279       0.00000000
END period  9

BEGIN period  10
  1 35 273       0.00000000
  1 36 273       0.00000000
  1 40 276       0.00000000
  1 43 278       0.00000000
  1 46 280       0.00000000
  1 47 279       0.00000000
END period  10

BEGIN period  11
  1 35 273       0.00000000
  1 36 273       0.00000000
  1 40 276       0.00000000
  1 43 278       0.00000000
  1 46 280       0.00000000
  1 47 279       0.00000000
END period  11

BEGIN period  12
  1 35 273       0.00000000
  1 36 273       0.00000000
  1 40 276       0.00000000
  1 43 278       0.00000000
  1 46 280       0.00000000
  1 47 279       0.00000000
END period  12

BEGIN period  13
  1 35 273       0.00000000
  1 36 273       0.00000000
  1 40 276       0.00000000
  1 43 278       0.00000000
  1 46 280       0.00000000
  1 47 279       0.00000000
END period  13

BEGIN period  14
  1 35 273       0.00000000
  1 36 273       0.00000000
  1 40 276       0.00000000
  1 43 278       0.00000000
  1 46 280       0.00000000
  1 47 279       0.00000000
END period  14

BEGIN period  15
  1 35 273       0.00000000
  1 36 273       0.00000000
  1 40 276       0.00000000
  1 43 278       0.00000000
  1 46 280       0.00000000
  1 47 279       0.00000000
END period  15

BEGIN period  16
  1 35 273       0.00000000
  1 36 273       0.00000000
  1 40 276       0.00000000
  1 43 278       0.00000000
  1 46 280       0.00000000
  1 47 279       0.00000000
END period  16

BEGIN period  17
  1 35 273       0.00000000
  1 36 273       0.00000000
  1 40 276       0.00000000
  1 43 278       0.00000000
  1 46 280       0.00000000
  1 47 279       0.00000000
END period  17

BEGIN period  18
  1 35 273       0.00000000
  1 36 273       0.00000000
  1 40 276       0.00000000
  1 43 278       0.00000000
  1 46 280       0.00000000
  1 47 279       0.00000000
END period  18

BEGIN period  19
  1 35 273       0.00000000
  1 36 273       0.00000000
  1 40 276       0.00000000
  1 43 278       0.00000000
  1 46 280       0.00000000
  1 47 279       0.00000000
END period  19

BEGIN period  20
  1 35 273       0.00000000
  1 36 273       0.00000000
  1 40 276       0.00000000
  1 43 278       0.00000000
  1 46 280       0.00000000
  1 47 279       0.00000000
END period  20

BEGIN period  21
  1 35 273       0.00000000
  1 36 273       0.00000000
  1 40 276       0.00000000
  1 43 278       0.00000000
  1 46 280       0.00000000
  1 47 279       0.00000000
END period  21

BEGIN period  22
  1 35 273       0.00000000
  1 36 273       0.00000000
  1 40 276       0.00000000
  1 43 278       0.00000000
  1 46 280       0.00000000
  1 47 279       0.00000000
END period  22

BEGIN period  23
  1 35 273       0.00000000
  1 36 273       0.00000000
  1 40 276       0.00000000
  1 43 278       0.00000000
  1 46 280       0.00000000
  1 47 279       0.00000000
END period  23

BEGIN period  24
  1 35 273       0.00000000
  1 36 273       0.00000000
  1 40 276       0.00000000
  1 43 278       0.00000000
  1 46 280       0.00000000
  1 47 279       0.00000000
END period  24

BEGIN period  25
  1 35 273       0.00000000
  1 36 273       0.00000000
  1 40 276       0.00000000
  1 43 278       0.00000000
  1 46 280       0.00000000
  1 47 279       0.00000000
END period  25

BEGIN period  26
  1 35 273       0.00000000
  1 36 273       0.00000000
  1 40 276       0.00000000
  1 43 278       0.00000000
  1 46 280       0.00000000
  1 47 279       0.00000000
END period  26

BEGIN period  27
  1 35 273       0.00000000
  1 36 273       0.00000000
  1 40 276       0.00000000
  1 43 278       0.00000000
  1 46 280       0.00000000
  1 47 279       0.00000000
END period  27

BEGIN period  28
  1 35 273       0.00000000
  1 36 273       0.00000000
  1 40 276       0.00000000
  1 43 278       0.00000000
  1 46 280       0.00000000
  1 47 279       0.00000000
END period  28

BEGIN period  29
  1 35 273       0.00000000
  1 36 273       0.00000000
  1 40 276       0.00000000
  1 43 278       0.00000000
  1 46 280       0.00000000
  1 47 279       0.00000000
END period  29

BEGIN period  30
  1 35 273       0.00000000
  1 36 273       0.00000000
  1 40 276       0.00000000
  1 43 278       0.00000000
  1 46 280       0.00000000
  1 47 279       0.00000000
END period  30

BEGIN period  31
  1 35 273       0.00000000
  1 36 273       0.00000000
  1 40 276       0.00000000
  1 43 278       0.00000000
  1 46 280       0.00000000
  1 47 279       0.00000000
END period  31

BEGIN period  32
  1 35 273       0.00000000
  1 36 273       0.00000000
  1 40 276       0.00000000
  1 43 278       0.00000000
  1 46 280       0.00000000
  1 47 279       0.00000000
END period  32

BEGIN period  33
  1 35 273       0.00000000
  1 36 273       0.00000000
  1 40 276       0.00000000
  1 43 278       0.00000000
  1 46 280       0.00000000
  1 47 279       0.00000000
END period  33

BEGIN period  34
  1 35 273       0.00000000
  1 36 273       0.00000000
  1 40 276       0.00000000
  1 43 278       0.00000000
  1 46 280       0.00000000
  1 47 279       0.00000000
END period  34

BEGIN period  35
  1 35 273       0.00000000
  1 36 273       0.00000000
  1 40 276       0.00000000
  1 43 278       0.00000000
  1 46 280       0.00000000
  1 47 279       0.00000000
END period  35

BEGIN period  36
  1 35 273       0.00000000
  1 36 273       0.00000000
  1 40 276       0.00000000
  1 43 278       0.00000000
  1 46 280       0.00000000
  1 47 279       0.00000000
END period  36

BEGIN period  37
  1 35 273       0.00000000
  1 36 273       0.00000000
  1 40 276       0.00000000
  1 43 278       0.00000000
  1 46 280       0.00000000
  1 47 279       0.00000000
END period  37

BEGIN period  38
  1 35 273       0.00000000
  1 36 273       0.00000000
  1 40 276       0.00000000
  1 43 278       0.00000000
  1 46 280       0.00000000
  1 47 279       0.00000000
END period  38

BEGIN period  39
  1 35 273       0.00000000
  1 36 273       0.00000000
  1 40 276       0.00000000
  1 43 278       0.00000000
  1 46 280       0.00000000
  1 47 279       0.00000000
END period  39

BEGIN period  40
  1 35 273       0.00000000
  1 36 273       0.00000000
  1 40 276       0.00000000
  1 43 278       0.00000000
  1 46 280       0.00000000
  1 47 279       0.00000000
END period  40

BEGIN period  41
  1 35 273       0.00000000
  1 36 273       0.00000000
  1 40 276       0.00000000
  1 43 278       0.00000000
  1 46 280       0.00000000
  1 47 279       0.00000000
END period  41

BEGIN period  42
  1 35 273       0.00000000
  1 36 273       0.00000000
  1 40 276       0.00000000
  1 43 278       0.00000000
  1 46 280       0.00000000
  1 47 279       0.00000000
END period  42

BEGIN period  43
  1 35 273       0.00000000
  1 36 273       0.00000000
  1 40 276       0.00000000
  1 43 278       0.00000000
  1 46 280       0.00000000
  1 47 279       0.00000000
END period  43

BEGIN period  44
  1 35 273       0.00000000
  1 36 273       0.00000000
  1 40 276       0.00000000
  1 43 278       0.00000000
  1 46 280       0.00000000
  1 47 279       0.00000000
END period  44

BEGIN period  45
  1 35 273       0.00000000
  1 36 273       0.00000000
  1 40 276       0.00000000
  1 43 278       0.00000000
  1 46 280       0.00000000
  1 47 279       0.00000000
END period  45

BEGIN period  46
  1 35 273       0.00000000
  1 36 273       0.00000000
  1 40 276       0.00000000
  1 43 278       0.00000000
  1 46 280       0.00000000
  1 47 279       0.00000000
END period  46

BEGIN period  47
  1 35 273       0.00000000
  1 36 273       0.00000000
  1 40 276       0.00000000
  1 43 278       0.00000000
  1 46 280       0.00000000
  1 47 279       0.00000000
END period  47

BEGIN period  48
  1 35 273       0.00000000
  1 36 273       0.00000000
  1 40 276       0.00000000
  1 43 278       0.00000000
  1 46 280       0.00000000
  1 47 279       0.00000000
END period  48

BEGIN period  49
  1 35 273       0.00000000
  1 36 273       0.00000000
  1 40 276       0.00000000
  1 43 278       0.00000000
  1 46 280       0.00000000
  1 47 279       0.00000000
END period  49

BEGIN period  50
  1 35 273       0.00000000
  1 36 273       0.00000000
  1 40 276       0.00000000
  1 43 278       0.00000000
  1 46 280       0.00000000
  1 47 279       0.00000000
END period  50

BEGIN period  51
  1 35 273       0.00000000
  1 36 273       0.00000000
  1 40 276       0.00000000
  1 43 278       0.00000000
  1 46 280       0.00000000
  1 47 279       0.00000000
END period  51

BEGIN period  52
  1 35 273       0.00000000
  1 36 273       0.00000000
  1 40 276       0.00000000
  1 43 278       0.00000000
  1 46 280       0.00000000
  1 47 279       0.00000000
END period  52

BEGIN period  53
  1 35 273       0.00000000
  1 36 273       0.00000000
  1 40 276       0.00000000
  1 43 278       0.00000000
  1 46 280       0.00000000
  1 47 279       0.00000000
END period  53

BEGIN period  54
  1 35 273       0.00000000
  1 36 273       0.00000000
  1 40 276       0.00000000
  1 43 278       0.00000000
  1 46 280       0.00000000
  1 47 279       0.00000000
END period  54

BEGIN period  55
  1 35 273       0.00000000
  1 36 273       0.00000000
  1 40 276       0.00000000
  1 43 278       0.00000000
  1 46 280       0.00000000
  1 47 279       0.00000000
END period  55

BEGIN period  56
  1 35 273       0.00000000
  1 36 273       0.00000000
  1 40 276       0.00000000
  1 43 278       0.00000000
  1 46 280       0.00000000
  1 47 279       0.00000000
END period  56

BEGIN period  57
  1 35 273       0.00000000
  1 36 273       0.00000000
  1 40 276       0.00000000
  1 43 278       0.00000000
  1 46 280       0.00000000
  1 47 279       0.00000000
END period  57

BEGIN period  58
  1 35 273       0.00000000
  1 36 273       0.00000000
  1 40 276       0.00000000
  1 43 278       0.00000000
  1 46 280       0.00000000
  1 47 279       0.00000000
END period  58

BEGIN period  59
  1 35 273       0.00000000
  1 36 273       0.00000000
  1 40 276       0.00000000
  1 43 278       0.00000000
  1 46 280       0.00000000
  1 47 279       0.00000000
END period  59

BEGIN period  60
  1 35 273       0.00000000
  1 36 273       0.00000000
  1 40 276       0.00000000
  1 43 278       0.00000000
  1 46 280       0.00000000
  1 47 279       0.00000000
END period  60

BEGIN period  61
  1 35 273       0.00000000
  1 36 273       0.00000000
  1 40 276       0.00000000
  1 43 278       0.00000000
  1 46 280       0.00000000
  1 47 279       0.00000000
END period  61

BEGIN period  62
  1 35 273       0.00000000
  1 36 273       0.00000000
  1 40 276       0.00000000
  1 43 278       0.00000000
  1 46 280       0.00000000
  1 47 279       0.00000000
END period  62

BEGIN period  63
  1 35 273       0.00000000
  1 36 273       0.00000000
  1 40 276       0.00000000
  1 43 278       0.00000000
  1 46 280       0.00000000
  1 47 279       0.00000000
END period  63

BEGIN period  64
  1 35 273       0.00000000
  1 36 273       0.00000000
  1 40 276       0.00000000
  1 43 278       0.00000000
  1 46 280       0.00000000
  1 47 279       0.00000000
END period  64

BEGIN period  65
  1 35 273       0.00000000
  1 36 273       0.00000000
  1 40 276       0.00000000
  1 43 278       0.00000000
  1 46 280       0.00000000
  1 47 279       0.00000000
END period  65

BEGIN period  66
  1 35 273       0.00000000
  1 36 273       0.00000000
  1 40 276       0.00000000
  1 43 278       0.00000000
  1 46 280       0.00000000
  1 47 279       0.00000000
END period  66

BEGIN period  67
  1 35 273       0.00000000
  1 36 273       0.00000000
  1 40 276       0.00000000
  1 43 278       0.00000000
  1 46 280       0.00000000
  1 47 279       0.00000000
END period  67

BEGIN period  68
  1 35 273       0.00000000
  1 36 273       0.00000000
  1 40 276       0.00000000
  1 43 278       0.00000000
  1 46 280       0.00000000
  1 47 279       0.00000000
END period  68

BEGIN period  69
  1 35 273       0.00000000
  1 36 273       0.00000000
  1 40 276       0.00000000
  1 43 278       0.00000000
  1 46 280       0.00000000
  1 47 279       0.00000000
END period  69

BEGIN period  70
  1 35 273       0.00000000
  1 36 273       0.00000000
  1 40 276       0.00000000
  1 43 278       0.00000000
  1 46 280       0.00000000
  1 47 279       0.00000000
END period  70

BEGIN period  71
  1 35 273       0.00000000
  1 36 273       0.00000000
  1 40 276       0.00000000
  1 43 278       0.00000000
  1 46 280       0.00000000
  1 47 279       0.00000000
END period  71

BEGIN period  72
  1 35 273       0.00000000
  1 36 273       0.00000000
  1 40 276       0.00000000
  1 43 278       0.00000000
  1 46 280       0.00000000
  1 47 279       0.00000000
END period  72

BEGIN period  73
  1 35 273       0.00000000
  1 36 273       0.00000000
  1 40 276       0.00000000
  1 43 278       0.00000000
  1 46 280       0.00000000
  1 47 279       0.00000000
END period  73

BEGIN period  74
  1 35 273       0.00000000
  1 36 273       0.00000000
  1 40 276       0.00000000
  1 43 278       0.00000000
  1 46 280       0.00000000
  1 47 279       0.00000000
END period  74

BEGIN period  75
  1 35 273       0.00000000
  1 36 273       0.00000000
  1 40 276       0.00000000
  1 43 278       0.00000000
  1 46 280       0.00000000
  1 47 279       0.00000000
END period  75

BEGIN period  76
  1 35 273       0.00000000
  1 36 273       0.00000000
  1 40 276       0.00000000
  1 43 278       0.00000000
  1 46 280       0.00000000
  1 47 279       0.00000000
END period  76

BEGIN period  77
  1 35 273       0.00000000
  1 36 273       0.00000000
  1 40 276       0.00000000
  1 43 278       0.00000000
  1 46 280       0.00000000
  1 47 279       0.00000000
END period  77

BEGIN period  78
  1 35 273       0.00000000
  1 36 273       0.00000000
  1 40 276       0.00000000
  1 43 278       0.00000000
  1 46 280       0.00000000
  1 47 279       0.00000000
END period  78

BEGIN period  79
  1 35 273       0.00000000
  1 36 273       0.00000000
  1 40 276       0.00000000
  1 43 278       0.00000000
  1 46 280       0.00000000
  1 47 279       0.00000000
END period  79

BEGIN period  80
  1 35 273       0.00000000
  1 36 273       0.00000000
  1 40 276       0.00000000
  1 43 278       0.00000000
  1 46 280       0.00000000
  1 47 279       0.00000000
END period  80

BEGIN period  81
  1 35 273       0.00000000
  1 36 273       0.00000000
  1 40 276       0.00000000
  1 43 278       0.00000000
  1 46 280       0.00000000
  1 47 279       0.00000000
END period  81

BEGIN period  82
  1 35 273       0.00000000
  1 36 273       0.00000000
  1 40 276       0.00000000
  1 43 278       0.00000000
  1 46 280       0.00000000
  1 47 279       0.00000000
END period  82

BEGIN period  83
  1 35 273       0.00000000
  1 36 273       0.00000000
  1 40 276       0.00000000
  1 43 278       0.00000000
  1 46 280       0.00000000
  1 47 279       0.00000000
END period  83

BEGIN period  84
  1 35 273       0.00000000
  1 36 273       0.00000000
  1 40 276       0.00000000
  1 43 278       0.00000000
  1 46 280       0.00000000
  1 47 279       0.00000000
END period  84

BEGIN period  85
  1 35 273       0.00000000
  1 36 273       0.00000000
  1 40 276       0.00000000
  1 43 278       0.00000000
  1 46 280       0.00000000
  1 47 279       0.00000000
END period  85

BEGIN period  86
  1 35 273       0.00000000
  1 36 273       0.00000000
  1 40 276       0.00000000
  1 43 278       0.00000000
  1 46 280       0.00000000
  1 47 279       0.00000000
END period  86

BEGIN period  87
  1 35 273       0.00000000
  1 36 273       0.00000000
  1 40 276       0.00000000
  1 43 278       0.00000000
  1 46 280       0.00000000
  1 47 279       0.00000000
END period  87

BEGIN period  88
  1 35 273       0.00000000
  1 36 273       0.00000000
  1 40 276       0.00000000
  1 43 278       0.00000000
  1 46 280       0.00000000
  1 47 279       0.00000000
END period  88

BEGIN period  89
  1 35 273       0.00000000
  1 36 273       0.00000000
  1 40 276       0.00000000
  1 43 278       0.00000000
  1 46 280       0.00000000
  1 47 279       0.00000000
END period  89

BEGIN period  90
  1 35 273       0.00000000
  1 36 273       0.00000000
  1 40 276       0.00000000
  1 43 278       0.00000000
  1 46 280       0.00000000
  1 47 279       0.00000000
END period  90

BEGIN period  91
  1 35 273       0.00000000
  1 36 273       0.00000000
  1 40 276       0.00000000
  1 43 278       0.00000000
  1 46 280       0.00000000
  1 47 279       0.00000000
END period  91

BEGIN period  92
  1 35 273       0.00000000
  1 36 273       0.00000000
  1 40 276       0.00000000
  1 43 278       0.00000000
  1 46 280       0.00000000
  1 47 279       0.00000000
END period  92

BEGIN period  93
  1 35 273       0.00000000
  1 36 273       0.00000000
  1 40 276       0.00000000
  1 43 278       0.00000000
  1 46 280       0.00000000
  1 47 279       0.00000000
END period  93

BEGIN period  94
  1 35 273       0.00000000
  1 36 273       0.00000000
  1 40 276       0.00000000
  1 43 278       0.00000000
  1 46 280       0.00000000
  1 47 279       0.00000000
END period  94

BEGIN period  95
  1 35 273       0.00000000
  1 36 273       0.00000000
  1 40 276       0.00000000
  1 43 278       0.00000000
  1 46 280       0.00000000
  1 47 279       0.00000000
END period  95

BEGIN period  96
  1 35 273       0.00000000
  1 36 273       0.00000000
  1 40 276       0.00000000
  1 43 278       0.00000000
  1 46 280       0.00000000
  1 47 279       0.00000000
END period  96

BEGIN period  97
  1 35 273       0.00000000
  1 36 273       0.00000000
  1 40 276       0.00000000
  1 43 278       0.00000000
  1 46 280       0.00000000
  1 47 279       0.00000000
END period  97

BEGIN period  98
  1 35 273       0.00000000
  1 36 273       0.00000000
  1 40 276       0.00000000
  1 43 278       0.00000000
  1 46 280       0.00000000
  1 47 279       0.00000000
END period  98

BEGIN period  99
  1 35 273       0.00000000
  1 36 273       0.00000000
  1 40 276       0.00000000
  1 43 278       0.00000000
  1 46 280       0.00000000
  1 47 279       0.00000000
END period  99

BEGIN period  100
  1 35 273       0.00000000
  1 36 273       0.00000000
  1 40 276       0.00000000
  1 43 278       0.00000000
  1 46 280       0.00000000
  1 47 279       0.00000000
END period  100

BEGIN period  101
  1 35 273       0.00000000
  1 36 273       0.00000000
  1 40 276       0.00000000
  1 43 278       0.00000000
  1 46 280       0.00000000
  1 47 279       0.00000000
END period  101

BEGIN period  102
  1 35 273       0.00000000
  1 36 273       0.00000000
  1 40 276       0.00000000
  1 43 278       0.00000000
  1 46 280       0.00000000
  1 47 279       0.00000000
END period  102

BEGIN period  103
  1 35 273       0.00000000
  1 36 273       0.00000000
  1 40 276       0.00000000
  1 43 278       0.00000000
  1 46 280       0.00000000
  1 47 279       0.00000000
END period  103

BEGIN period  104
  1 35 273       0.00000000
  1 36 273       0.00000000
  1 40 276       0.00000000
  1 43 278       0.00000000
  1 46 280       0.00000000
  1 47 279       0.00000000
END period  104

BEGIN period  105
  1 35 273       0.00000000
  1 36 273       0.00000000
  1 40 276       0.00000000
  1 43 278       0.00000000
  1 46 280       0.00000000
  1 47 279       0.00000000
END period  105

BEGIN period  106
  1 35 273       0.00000000
  1 36 273       0.00000000
  1 40 276       0.00000000
  1 43 278       0.00000000
  1 46 280       0.00000000
  1 47 279       0.00000000
END period  106

BEGIN period  107
  1 35 273       0.00000000
  1 36 273       0.00000000
  1 40 276       0.00000000
  1 43 278       0.00000000
  1 46 280       0.00000000
  1 47 279       0.00000000
END period  107

BEGIN period  108
  1 35 273       0.00000000
  1 36 273       0.00000000
  1 40 276       0.00000000
  1 43 278       0.00000000
  1 46 280       0.00000000
  1 47 279       0.00000000
END period  108

BEGIN period  109
  1 35 273       0.00000000
  1 36 273       0.00000000
  1 40 276       0.00000000
  1 43 278       0.00000000
  1 46 280       0.00000000
  1 47 279       0.00000000
END period  109

BEGIN period  110
  1 35 273       0.00000000
  1 36 273       0.00000000
  1 40 276       0.00000000
  1 43 278       0.00000000
  1 46 280       0.00000000
  1 47 279       0.00000000
END period  110

BEGIN period  111
  1 35 273       0.00000000
  1 36 273       0.00000000
  1 40 276       0.00000000
  1 43 278       0.00000000
  1 46 280       0.00000000
  1 47 279       0.00000000
END period  111

BEGIN period  112
  1 35 273       0.00000000
  1 36 273       0.00000000
  1 40 276       0.00000000
  1 43 278       0.00000000
  1 46 280       0.00000000
  1 47 279       0.00000000
END period  112

BEGIN period  113
  1 35 273       0.00000000
  1 36 273       0.00000000
  1 40 276       0.00000000
  1 43 278       0.00000000
  1 46 280       0.00000000
  1 47 279       0.00000000
END period  113

BEGIN period  114
  1 35 273       0.00000000
  1 36 273       0.00000000
  1 40 276       0.00000000
  1 43 278       0.00000000
  1 46 280       0.00000000
  1 47 279       0.00000000
END period  114

BEGIN period  115
  1 35 273       0.00000000
  1 36 273       0.00000000
  1 40 276       0.00000000
  1 43 278       0.00000000
  1 46 280       0.00000000
  1 47 279       0.00000000
END period  115

BEGIN period  116
  1 35 273       0.00000000
  1 36 273       0.00000000
  1 40 276       0.00000000
  1 43 278       0.00000000
  1 46 280       0.00000000
  1 47 279       0.00000000
END period  116

BEGIN period  117
  1 35 273       0.00000000
  1 36 273       0.00000000
  1 40 276       0.00000000
  1 43 278       0.00000000
  1 46 280       0.00000000
  1 47 279       0.00000000
END period  117

BEGIN period  118
  1 35 273       0.00000000
  1 36 273       0.00000000
  1 40 276       0.00000000
  1 43 278       0.00000000
  1 46 280       0.00000000
  1 47 279       0.00000000
END period  118

BEGIN period  119
  1 35 273       0.00000000
  1 36 273       0.00000000
  1 40 276       0.00000000
  1 43 278       0.00000000
  1 46 280       0.00000000
  1 47 279       0.00000000
END period  119

BEGIN period  120
  1 35 273       0.00000000
  1 36 273       0.00000000
  1 40 276       0.00000000
  1 43 278       0.00000000
  1 46 280       0.00000000
  1 47 279       0.00000000
END period  120

BEGIN period  121
  1 35 273       0.00000000
  1 36 273       0.00000000
  1 40 276       0.00000000
  1 43 278       0.00000000
  1 46 280       0.00000000
  1 47 279       0.00000000
END period  121

BEGIN period  122
  1 35 273       0.00000000
  1 36 273       0.00000000
  1 40 276       0.00000000
  1 43 278       0.00000000
  1 46 280       0.00000000
  1 47 279       0.00000000
END period  122

BEGIN period  123
  1 35 273       0.00000000
  1 36 273       0.00000000
  1 40 276       0.00000000
  1 43 278       0.00000000
  1 46 280       0.00000000
  1 47 279       0.00000000
END period  123

BEGIN period  124
  1 35 273       0.00000000
  1 36 273       0.00000000
  1 40 276       0.00000000
  1 43 278       0.00000000
  1 46 280       0.00000000
  1 47 279       0.00000000
END period  124

BEGIN period  125
  1 35 273       0.00000000
  1 36 273       0.00000000
  1 40 276       0.00000000
  1 43 278       0.00000000
  1 46 280       0.00000000
  1 47 279       0.00000000
END period  125

BEGIN period  126
  1 35 273       0.00000000
  1 36 273       0.00000000
  1 40 276       0.00000000
  1 43 278       0.00000000
  1 46 280       0.00000000
  1 47 279       0.00000000
END period  126

BEGIN period  127
  1 35 273       0.00000000
  1 36 273       0.00000000
  1 40 276       0.00000000
  1 43 278       0.00000000
  1 46 280       0.00000000
  1 47 279       0.00000000
END period  127

BEGIN period  128
  1 35 273       0.00000000
  1 36 273       0.00000000
  1 40 276       0.00000000
  1 43 278       0.00000000
  1 46 280       0.00000000
  1 47 279       0.00000000
END period  128

BEGIN period  129
  1 35 273       0.00000000
  1 36 273       0.00000000
  1 40 276       0.00000000
  1 43 278       0.00000000
  1 46 280       0.00000000
  1 47 279       0.00000000
END period  129

BEGIN period  130
  1 35 273       0.00000000
  1 36 273       0.00000000
  1 40 276       0.00000000
  1 43 278       0.00000000
  1 46 280       0.00000000
  1 47 279       0.00000000
END period  130

BEGIN period  131
  1 35 273       0.00000000
  1 36 273       0.00000000
  1 40 276       0.00000000
  1 43 278       0.00000000
  1 46 280       0.00000000
  1 47 279       0.00000000
END period  131

BEGIN period  132
  1 35 273       0.00000000
  1 36 273       0.00000000
  1 40 276       0.00000000
  1 43 278       0.00000000
  1 46 280       0.00000000
  1 47 279       0.00000000
END period  132

BEGIN period  133
  1 35 273       0.00000000
  1 36 273       0.00000000
  1 40 276       0.00000000
  1 43 278       0.00000000
  1 46 280       0.00000000
  1 47 279       0.00000000
END period  133

BEGIN period  134
  1 35 273       0.00000000
  1 36 273       0.00000000
  1 40 276       0.00000000
  1 43 278       0.00000000
  1 46 280       0.00000000
  1 47 279       0.00000000
END period  134

BEGIN period  135
  1 35 273       0.00000000
  1 36 273       0.00000000
  1 40 276       0.00000000
  1 43 278       0.00000000
  1 46 280       0.00000000
  1 47 279       0.00000000
END period  135

BEGIN period  136
  1 35 273       0.00000000
  1 36 273       0.00000000
  1 40 276       0.00000000
  1 43 278       0.00000000
  1 46 280       0.00000000
  1 47 279       0.00000000
END period  136

BEGIN period  137
  1 35 273       0.00000000
  1 36 273       0.00000000
  1 40 276       0.00000000
  1 43 278       0.00000000
  1 46 280       0.00000000
  1 47 279       0.00000000
END period  137

BEGIN period  138
  1 35 273       0.00000000
  1 36 273       0.00000000
  1 40 276       0.00000000
  1 43 278       0.00000000
  1 46 280       0.00000000
  1 47 279       0.00000000
END period  138

BEGIN period  139
  1 35 273       0.00000000
  1 36 273       0.00000000
  1 40 276       0.00000000
  1 43 278       0.00000000
  1 46 280       0.00000000
  1 47 279       0.00000000
END period  139

BEGIN period  140
  1 35 273       0.00000000
  1 36 273       0.00000000
  1 40 276       0.00000000
  1 43 278       0.00000000
  1 46 280       0.00000000
  1 47 279       0.00000000
END period  140

BEGIN period  141
  1 35 273       0.00000000
  1 36 273       0.00000000
  1 40 276       0.00000000
  1 43 278       0.00000000
  1 46 280       0.00000000
  1 47 279       0.00000000
END period  141

BEGIN period  142
  1 35 273       0.00000000
  1 36 273       0.00000000
  1 40 276       0.00000000
  1 43 278       0.00000000
  1 46 280       0.00000000
  1 47 279       0.00000000
END period  142

BEGIN period  143
  1 35 273       0.00000000
  1 36 273       0.00000000
  1 40 276       0.00000000
  1 43 278       0.00000000
  1 46 280       0.00000000
  1 47 279       0.00000000
END period  143

BEGIN period  144
  1 35 273       0.00000000
  1 36 273       0.00000000
  1 40 276       0.00000000
  1 43 278       0.00000000
  1 46 280       0.00000000
  1 47 279       0.00000000
END period  144

BEGIN period  145
  1 35 273       0.00000000
  1 36 273       0.00000000
  1 40 276       0.00000000
  1 43 278       0.00000000
  1 46 280       0.00000000
  1 47 279       0.00000000
END period  145

BEGIN period  146
  1 35 273       0.00000000
  1 36 273       0.00000000
  1 40 276       0.00000000
  1 43 278       0.00000000
  1 46 280       0.00000000
  1 47 279       0.00000000
END period  146

BEGIN period  147
  1 35 273       0.00000000
  1 36 273       0.00000000
  1 40 276       0.00000000
  1 43 278       0.00000000
  1 46 280       0.00000000
  1 47 279       0.00000000
END period  147

BEGIN period  148
  1 35 273       0.00000000
  1 36 273       0.00000000
  1 40 276       0.00000000
  1 43 278       0.00000000
  1 46 280       0.00000000
  1 47 279       0.00000000
END period  148
