# File generated by Flopy version 3.4.3 on 05/26/2026 at 20:04:53.
BEGIN options
  LENGTH_UNITS  meters
  XORIGIN  1.94087013E+05
  YORIGIN  1.12071634E+05
END options

BEGIN dimensions
  NLAY  1
  NROW  260
  NCOL  323
END dimensions

BEGIN griddata
  delr
    CONSTANT      27.00000000
  delc
    CONSTANT      27.00000000
  top
    INTERNAL  FACTOR  1.0
         5.69159833       6.00380737       6.27271713       6.64950663       7.77672240       8.36438700       8.42429924       8.51546713       8.67315372       7.59646750       6.33873095       6.96644648       8.00844337       8.26491451       8.45944216       8.87175655       8.69759299       7.67311334       6.74198536       6.60987737       7.06080011       7.37642956       7.72811581       8.38712950       8.59470808       7.89691219       6.71352688       6.30283482       6.28231592       6.34326172       6.44847111       6.77900298       7.19789060       7.75977093       7.96756670       7.62624551       7.51416071       7.74403095       7.70672990       7.53150192       7.36935529       7.40434002       8.51359038       8.48073702       8.26423838       8.04301453       7.95812250       7.07307041       6.72307722       6.52968890       6.22006534       5.86154144       5.69956468       5.54252295       5.36730922       5.20667583       5.06890505       4.91670138       4.86594480       4.95849926       4.50515305       4.46410964       4.21640717       4.04226491       3.90510981       3.70341559       3.61969907       3.18734738       2.83856015       2.76508363       2.78353786       2.69381236       2.77340094       3.05678630       3.15789922       3.41925211       3.65653054       3.70703537       3.71657260       3.89066629       4.40022036       4.76484932       4.73046150       4.43273901       4.16848024       4.08756758       4.11243900       4.11266217       4.24503269       4.53387338       4.66440367       4.77031593       5.20894602       5.55928197       5.59249428       5.53991838       5.33130397       5.24332541       5.16390179       5.07808207       4.89269661       4.82303224       4.72260043       4.44281980       4.48007891       4.38035231       4.34503885       4.38282039       4.35714716       4.31525940       4.18102253       4.16877094       4.24520404       4.35548360       4.42976049       4.47944446       4.39870381       4.33615873       4.33136856       4.32665893       4.30907075       4.21127032       4.27054953       4.21993978       4.16386790       3.91042342       3.85289848       3.85046851       3.99428825       3.84769530       3.70117819       3.72244052       3.89264641       4.16512564       4.16206516       4.16860386       3.97240199       3.59810774       3.38326067       3.18952082       2.79417647       2.29885683       1.85146514       1.83962479       1.54655287       1.19325087       1.28441640       1.18593819       1.05911949       0.91646338       0.85311563       0.85497458       0.89222622       0.86641071       1.11222856       1.30675165       1.38346367       1.18726803       0.99782530       0.89819760       0.92355599       0.92884870       0.94601429       0.99893447       1.00126292       0.92567744       0.96842546       1.01673329       0.90241253      -0.00865025      -0.00865160      -0.25004691      -0.03379086       1.13378722       1.05950334       1.06041346       1.01956027       1.00842870       0.98217467       0.92170635       0.82775929       0.93473328       0.95659012       0.91506768       0.76144053       1.00261251       0.95404840       1.01011441       1.01159271       1.00280358       0.97319957       0.97275846       0.94947309       0.96080186       0.98085854       0.98062298       1.02217044       0.95983390       1.01369083       1.01663848       1.05032077       1.07353296       0.87242689       0.11957100       0.69914873       0.99623107       0.96596161       1.01228551       1.01931711       0.91267173       0.94588527       1.00856832       0.91285048       0.93489746       0.94924561       0.95272323       0.95063892       0.64661188       0.64339896       0.51810694       0.58492817       0.26187440       0.19000000       0.19000000       0.46271736       0.74213747       0.59980093       0.41814919       0.51305018       0.66138468       0.74341709       0.72971181       0.78088123       0.83038573       0.82224171       0.62521415       0.43326016       0.99999145       1.14125879       0.95454263       0.49731819      -0.25175390      -0.91789341      -0.68007214       0.62134890       0.45851917       0.16955837       0.19537608       0.80767414       0.77570353       0.73973301       0.78661249       0.61949418       0.70330097       0.79087755       0.78837558       0.92681822       1.34755178       1.11002845       1.17336696       1.15190083       1.14736556       1.86723403       0.04522347      -0.24245350      -0.35512444      -0.46381331      -0.49653969      -0.64040645      -0.64060172      -0.68016964      -0.78980996      -0.79152517      -0.84219826      -0.91015689      -0.94334228      -1.02093912      -1.04282458      -1.06431459      -1.10534857      -1.09500827      -1.36118201      -1.44903461      -1.44745552      -1.44360220      -1.44117780      -1.44072494      -1.43966961      -1.43813798      -1.43660831      -1.43507307      -1.17080773      -0.53568106      -0.09954534       0.00000000       0.00000000       0.00000000       0.00000000       0.00000000       0.00000000       0.00000000       0.00000000       0.00000000       0.00000000       0.00000000       0.00000000       0.00000000       0.00000000       0.00000000       0.00000000       0.00000000       0.00000000       0.00000000       0.00000000       0.00000000       0.00000000       0.00000000       0.00000000       0.00000000       0.00000000       0.00000000       0.00000000       0.00000000
         5.81444900       6.12665804       6.37520003       6.75606607       7.88328184       8.45490010       8.51481234       8.57161573       8.72930232       7.80353772       6.49422713       7.12194265       7.94585961       8.20233076       8.47873046       8.89104486       8.85754367       7.83306402       6.89132414       6.67904402       7.12996675       7.39386752       7.64072864       8.17214714       8.37972573       8.03326454       6.84987923       6.38022899       6.35971009       6.46549836       6.57070774       6.82196502       7.24085264       7.72713424       7.93493001       7.69472271       7.58263791       7.74293596       7.78000241       7.70239058       7.54633377       7.74765759       8.49993039       8.42026987       8.18986102       7.98206756       7.89717553       7.09794443       6.77018028       6.53597768       6.22426979       5.88276923       5.73178288       5.57318421       5.43281771       5.24223831       5.10346446       5.04026291       5.07094137       5.39836927       5.11551015       5.10394127       4.84349437       4.64699812       4.50848100       4.44274844       4.36912130       3.66318442       3.53825613       3.49322784       2.82107190       2.19142925       2.27816859       2.45980226       2.93347239       3.21636699       3.35787562       3.39049064       3.66532372       3.90095804       4.16596588       4.32803717       4.31231698       4.09041630       3.82388100       3.79239231       3.77055907       3.76044158       3.93957396       4.21968214       4.41827693       4.59431307       4.95305622       5.18091013       5.23264957       5.07729067       4.73399119       4.73979328       4.70868302       4.66754633       4.54788069       4.61422499       4.56726609       4.39166891       4.41633441       4.20001999       4.09164306       4.02107289       4.18217632       4.21918663       4.02228811       3.99541843       4.09984665       4.16890663       4.33549342       4.46021509       4.41175147       4.24579137       4.20693069       4.20222106       4.09983121       3.92508052       4.00988872       3.91144956       3.88841892       3.51589197       3.48492237       3.48340978       3.63134509       3.68664823       3.64915964       3.63823877       3.75659925       3.99732834       4.08278445       4.11584027       4.00890978       3.60555213       3.43443564       3.30656308       3.02686858       2.49751775       2.32385230       2.34012725       2.08824922       1.74117630       1.45453928       1.17322918       1.01876079       0.93112771       0.88821031       0.88678325       0.96152854       0.97815563       1.09826358       1.41875511       1.50742923       1.38458697       1.14588972       0.90961799       0.89555396       0.88796490       0.91202806       0.91722545       1.13677582       1.15845025       1.11562365       1.03056995       1.23034303       1.22474203       0.73700410      -0.25046416      -0.12257889       0.39998569       0.94755467       0.88983754       1.01970617       0.95872933       0.95282424       0.92916544       0.62810055       0.92856298       0.93867521       0.93215440       0.99270312       0.97962370       0.96581000       1.02897496       1.00172021       1.07653317       0.93838584       0.93794473       0.94186130       0.92057880       0.96884901       1.08340276       1.09887180       1.00973796       1.08722041       1.08787532       0.96647543       1.01880023       1.15955848       0.83351838       0.78656805       0.97865686       0.93108082       0.98310693       1.03446996       0.99822713       0.97913772       0.98197945       0.94279061       0.95623778       0.92438414       0.96241522       0.98158596       1.05987152       0.51969290       0.37421470       0.29383457       0.19000000       0.19000000       0.19000000       0.40942624       0.52027050       0.30491034       0.19001181       0.37719124       0.59779190       0.69771343       0.72771105       0.74805780       0.83890391       0.85814824       0.69152588       0.91802531       0.45452389      -0.49536112      -0.58784645      -0.95852134      -0.95953979      -0.96012999      -0.96208571      -0.96489923      -0.96552090      -0.94305461      -0.36825682       0.73418669       0.70671890       0.60750863       0.66906757       0.88268667       0.56634805       0.84690691       0.86303043       1.15306162       1.15801935       1.11304663       1.16548440       1.20603099       1.17368549       1.83413415      -0.01709933      -0.21334667      -0.36571380      -0.46809798      -0.53900806      -0.65428602      -0.66616400      -0.71569858      -0.76290313      -0.76137674      -0.79298626      -0.89697210      -0.92741982      -0.98989679      -1.09921150      -1.09598922      -1.07590113      -1.06619120      -1.12464185      -1.37405584      -1.44804894      -1.44409332      -1.44165696      -1.44120347      -1.44014066      -1.43860475      -1.43706381      -1.43552434      -1.26127215      -0.62793111      -0.11540160  -9.39162129E-07  -9.39162129E-07       0.00000000       0.00000000       0.00000000       0.00000000       0.00000000       0.00000000       0.00000000       0.00000000       0.00000000       0.00000000       0.00000000       0.00000000       0.00000000       0.00000000       0.00000000       0.00000000       0.00000000       0.00000000       0.00000000       0.00000000       0.00000000       0.00000000       0.00000000       0.00000000       0.00000000       0.00000000       0.00000000
         6.37190203       6.98798451       7.22400625       7.49191029       8.43672110       8.85727921       8.98554661       8.96694800       8.73305432       8.21808067       7.18006925       7.02307460       7.62772526       7.98572941       8.40142298       8.79425446       9.04768816       8.79998915       7.85009674       7.44461746       7.48940048       7.66546308       7.61659704       7.71419418       7.60532227       7.75796079       7.29196317       6.85092936       6.82655041       7.03374013       7.10559047       7.23363760       7.40236681       7.74841505       7.96683660       8.01542205       7.83673761       7.80052842       7.83846356       8.13189619       8.40058116       8.77773872       8.55155366       8.23839252       7.86895663       7.68337203       7.63090734       7.10693981       6.95899723       6.65022980       6.43349261       6.06496820       5.93187264       5.75658232       5.71949344       5.45582888       5.30988279       5.23528391       5.25932281       5.64794928       5.55402980       5.54246091       5.37112884       5.05131143       4.86177888       4.99210748       4.84686261       4.11576781       3.91468916       3.86371031       3.80056003       3.34427906       2.05687771       2.37345630       2.86569670       3.02787171       3.15150777       3.17742647       3.39355254       3.42012778       3.61537118       3.75948542       3.58198336       3.38935979       3.35230796       3.38023538       3.41460415       3.47004908       3.72525169       3.99954228       4.26844445       4.49497833       4.73342864       4.80162694       4.87172366       4.66728721       4.16836598       4.13200268       4.10077558       4.08447879       4.21362196       4.36866909       4.34124673       4.37483837       4.39757147       4.15304370       3.90595057       3.78975484       3.88466073       4.07869870       3.93448215       3.95710282       4.02235514       4.06619636       4.22057239       4.40799157       4.41735003       4.22027439       3.99347092       3.97161407       3.80475000       3.46372798       3.53689409       3.34132944       3.36381218       3.01680460       3.06758607       3.07630305       3.29239721       3.45594090       3.75839604       3.71095597       3.78322228       3.90198133       4.10508215       4.13490244       4.10046903       3.73154495       3.66143800       3.57472123       3.60851308       3.21578034       2.93135069       2.90407288       2.76596595       2.30083818       1.94544478       1.61989720       1.30887831       1.21464263       1.05027943       1.09043349       1.09218790       1.03390701       1.21924191       1.36642503       1.37891967       1.45349162       1.32995317       1.10259915       0.99707421       0.94938464       0.91547664       1.24777119       1.76847885       1.77820063       1.63643305       1.59640274       1.61498422       2.01417374       1.35483183       0.69534269      -0.25214457      -0.25355105      -0.25412210      -0.12456763       1.08424488       1.01826775       1.00842751       0.93384253       1.03339926       0.87485200       1.01446787       1.00794706       0.97243337       0.93297226       0.99926311       0.98199192       0.96372695       1.03116983       0.95582992       0.95268072       0.99484872       0.95163925       1.07204622       1.04243699       0.97923783       1.14444769       1.16777481       1.17519306       0.29052635       1.08007851       1.11067410       0.02721411       0.22830704       1.10612680       1.09547082       1.02921203       1.10330023       1.06856069       0.99683071       0.92968818       0.98960170       0.97843786       0.99915062       0.95927258       0.83026969       0.94742772       0.47547247       0.50615411       0.28872933       0.19000000       0.19000000       0.19000000       0.19000000       0.19000000       0.19000000       0.19000000       0.42770983       0.68834690       0.86779651       0.79543610       0.72018363       0.80280988       0.78457287       0.60365782       0.00547835      -0.95074945      -0.95353283      -0.95431004      -0.95644679      -0.95834779      -0.95977508      -0.84001565      -0.96648149      -0.96936572      -0.96998661      -0.97005981      -0.87664385       0.72164874       0.81661334       0.68436675       0.64497103       1.22372684       1.03448922       1.05061273       1.12093895       1.10048322       1.12806242       1.10904070       1.21877155       1.21958490       1.95386238       0.02593207      -0.23061543      -0.34708055      -0.43247842      -0.51170524      -0.64774635      -0.71255752      -0.75684855      -0.76822355      -0.78878387      -0.86004746      -0.84237025      -0.91388031      -0.99181926      -0.98537825      -1.00203287      -1.06657392      -1.06035434      -1.07878521      -1.29407750      -1.38852452      -1.44462840      -1.44216968      -1.44171044      -1.44064049      -1.43909515      -1.43754504      -1.43599545      -1.27662980      -0.72778272      -0.18999286      -0.02674615  -2.02011692E-06       0.00000000       0.00000000       0.00000000       0.00000000       0.00000000       0.00000000       0.00000000       0.00000000       0.00000000       0.00000000       0.00000000       0.00000000       0.00000000       0.00000000       0.00000000       0.00000000       0.00000000       0.00000000       0.00000000       0.00000000       0.00000000       0.00000000       0.00000000       0.00000000       0.00000000       0.00000000       0.00000000
         7.50423385       8.58913544       8.82544506       9.05845042       9.54189780       9.50680479       9.44747170       9.25897202       8.95886022       8.18375816       7.51336844       7.20786107       7.47835305       7.92077375       8.19585199       8.29527926       8.56390948       8.71912963       8.70531787       8.67920087       8.55891498       8.45547698       8.24862576       7.74105347       7.50242908       7.49099219       7.68857794       7.58333125       7.48506975       7.50955722       7.46901768       7.69012193       7.71951477       7.97844625       8.29422994       8.07347099       8.00311586       8.21825239       8.35384114       8.74866364       8.83171959       8.76099262       8.11828634       7.88137172       7.71245428       7.44617371       7.42646901       6.96854860       6.94677472       7.09505488       7.22845494       6.51240046       6.22921104       6.00183743       5.82006604       5.76193472       5.58845906       5.52717411       5.58350999       5.65395844       5.50203724       5.48678942       5.26696067       5.05816419       4.81013119       4.68817340       4.46272785       4.25410567       4.19846566       4.20282010       4.15075714       3.80270621       3.51009935       3.09459890       2.28067060       2.47182195       2.81870473       2.85546120       2.87560672       2.59187724       2.71093185       3.04264043       2.90371881       2.70809263       2.66879967       2.66055839       2.83450042       3.11097999       3.55034412       4.06953453       4.42155547       4.60754293       4.56306151       4.44735387       4.28550434       3.92875433       3.73687538       3.62644338       3.48960575       3.34836066       3.44907211       3.58767765       3.72755848       3.97541559       3.85232517       3.65717570       3.43770218       3.37076435       3.42195844       3.54389270       4.03437465       4.10218962       4.09118950       4.07232811       4.15717750       4.28999206       4.33799696       4.06099506       3.70788239       3.68002879       3.29588305       2.99225311       3.01176431       2.66982012       2.70210892       2.59340444       2.81113545       2.81985244       3.20255415       3.29949765       3.64144741       3.73950097       3.81433806       3.79208434       3.87259174       3.90241204       3.98078718       3.91625429       4.01292540       4.02370472       3.86079943       3.69010090       3.55506340       3.54774159       3.22521270       2.76909431       2.34754259       2.14277237       1.93540326       1.59255055       1.33698878       1.32007427       1.33712601       1.34454023       1.39354292       1.45689999       1.40899001       1.47783741       1.52702086       1.42572800       1.21490621       1.03675705       1.10893629       1.49718079       2.02754434       2.08781412       1.63352171       1.81986790       2.27416239       2.64087718       2.29203547       1.69210261       0.85894789      -0.01271540      -0.25499453      -0.24307888      -0.04995905       0.86324114       0.98962638       0.93710754       0.97720972       0.98776597       1.02541378       1.02837060       0.90897122       1.02032024       0.96914583       0.98765664       1.00193347       1.04523783       1.02637199       1.02417673       0.95271011       1.05345779       1.06117844       0.97349139       0.32910597       1.05561268       1.16514131       1.17255956       1.08353293       0.98249628       1.01202358       1.02474201       1.01140163       0.93332077       0.92550024       0.95545872       0.91272553       1.01150216       1.01716026       0.96185228       0.94384702       0.96371676       0.91993118       0.89031981       0.90575051       1.00163599       1.05758348       0.59862835       0.24550293       0.23795780       0.19000000       0.19000000       0.19000000       0.19000000       0.19000000       0.32181914       0.66501107       0.78012249       0.71334103       0.69583943       0.72156096       0.81672547       0.57458653      -0.04894640      -0.61083959      -0.94952921      -0.95056368      -0.95133844      -0.95330771      -0.95589034      -0.36749950      -0.25293402      -0.45778933      -0.91019133      -0.91022231      -0.97028608      -0.97113226      -0.97349330      -0.90780655       1.18929371       1.17621240       1.03981016       1.12298903       1.14775316       1.08926455       1.10234675       1.15309886       1.13005192       1.20082214       1.16877778       1.92315644       0.02758351      -0.22620970      -0.36996697      -0.46331245      -0.50125164      -0.63542755      -0.67282710      -0.75922582      -0.78245058      -0.80990006      -0.83286960      -0.83982629      -0.94738125      -0.98593815      -1.06876625      -1.08542088      -1.10254860      -1.09138742      -1.14055008      -1.13847511      -1.36494585      -1.44518323      -1.44271327      -1.44224970      -1.44117114      -1.43961429      -1.43805331      -1.43649580      -1.38354060      -0.84882980      -0.31809907      -0.16760256      -0.06171312       0.00000000       0.00000000       0.00000000       0.00000000       0.00000000       0.00000000       0.00000000       0.00000000       0.00000000       0.00000000       0.00000000       0.00000000       0.00000000       0.00000000       0.00000000       0.00000000       0.00000000       0.00000000       0.00000000       0.00000000       0.00000000       0.00000000       0.00000000       0.00000000       0.00000000       0.00000000       0.00000000
         7.60137026       8.82169255       9.42770132       9.75395909       9.65531834       9.37620348       9.32761415       9.27830675       9.06285686       8.34955499       7.78774089       7.52981555       7.45291884       8.02949070       8.44756173       8.51689486       8.69978109       8.83306102       8.78186909       8.53256240       8.22621078       8.05709707       7.92048043       7.69422428       7.46897477       7.43416832       7.73428372       7.86537721       7.95037503       8.12262105       8.05819440       7.67426988       7.52756106       7.79617944       8.17276875       8.26459351       8.55140723       9.16662217       9.30477064       9.53515121       9.10424182       8.72581646       8.18992454       7.97098665       7.75232693       7.57639437       7.55668967       7.34440514       7.37285930       7.38700595       7.11895529       6.40772191       6.12050153       5.89668527       5.77292498       5.61224680       5.46755597       5.44965634       5.45045205       5.34818849       5.12011286       5.08897692       4.89383070       4.76224897       4.52718969       4.43065988       4.26997520       4.23726538       4.18193030       4.18003933       4.18262744       3.91958861       3.59185490       3.40183382       1.96819010       2.31277750       2.83205939       2.96774365       3.03693755       2.89710734       2.77111406       2.75616522       2.61161953       2.40656442       2.39760569       2.48724988       2.70841639       3.06062438       3.55381422       4.12340797       4.40461241       4.54386829       4.49405434       4.33628496       4.13728277       3.71482502       3.49361001       3.44201021       3.20526408       3.05835934       3.11365968       3.26065901       3.35674181       3.50344611       3.25636083       3.07979490       2.98319751       2.96435775       3.08034290       3.36885891       4.07988154       4.22649741       4.23676423       4.20057842       4.16181615       4.22630243       4.30752967       4.01697119       3.59657216       3.56871856       3.09788196       2.78597632       2.68690077       2.30589752       2.26285450       2.35929827       2.64002612       2.65207863       3.00462653       2.98931823       3.31684528       3.60458276       3.87303102       3.64490984       3.57264295       3.56727028       3.62586073       3.85020358       4.13913737       3.94718936       3.90816310       3.79408197       3.50883006       3.42003274       3.07334722       2.76324712       2.48372043       2.27427518       2.07634674       1.77624414       1.58347595       1.51224578       1.56694910       1.73669182       1.74944199       1.66792046       1.66609295       1.65936252       1.60551927       1.52616031       1.42056702       1.28574255       1.33524250       1.72492759       2.17265010       2.21578746       1.96853590       2.26772269       2.75791280       2.74020044       2.71415475       2.60683305       1.98895981       0.72814347      -0.25569499      -0.25614220      -0.25759303      -0.00753514       0.86521787       1.08510462       1.04276508       1.00876328       0.98522967       0.98818649       1.00365959       0.99794753       0.98696207       0.88426375       1.05542564       0.96309939       0.99581003       0.99361477       0.94237500       1.05643811       1.09746750       0.30704917       1.14311539       0.86541027       1.01072353       1.02094579       1.00487571       1.01011983       0.99041892       1.00325871       0.96885008       0.74876404       0.95098700       0.97651839       0.98486413       0.98751543       0.97290888       0.85088187       0.94821203       0.98995927       1.02282067       1.01947797       0.99607859       1.03071169       1.26524800       0.61387720       0.36366550       0.29644679       0.19000000       0.19000000       0.19000000       0.19000000       0.19000000       0.38343694       0.71933085       0.80110605       0.72905117       0.82221276       0.86333612       0.81048947       0.55812764      -0.28319437      -0.94640084      -0.94755848      -0.94834143      -0.94886209      -0.95034973      -0.21946044       1.17622892       0.71085910  1.60396802E-04      -0.23009428      -0.62557411      -0.71091145      -0.97212035      -0.97508595      -0.97705290      -0.59677543       1.05782350       1.14359390       0.97920752       1.00397164       1.15661875       1.10680293       1.17661325       1.17206788       1.18141352       1.16122880       1.71882248       0.01023309      -0.22032464      -0.36744942      -0.45637094      -0.59867164      -0.62957810      -0.64129213      -0.70360833      -0.76076691      -0.78388810      -0.84322520      -0.86810842      -0.90529156      -0.92336488      -0.99475315      -1.00965881      -1.05792044      -1.08293538      -1.14984080      -1.10488103      -1.35317524      -1.44564291      -1.44319204      -1.44272649      -1.44164031      -1.44006984      -1.43850087      -1.43693194      -1.43436540      -0.94883191      -0.42858293      -0.28567329      -0.12346341       0.00000000       0.00000000       0.00000000       0.00000000       0.00000000       0.00000000       0.00000000       0.00000000       0.00000000       0.00000000       0.00000000       0.00000000       0.00000000       0.00000000       0.00000000       0.00000000       0.00000000       0.00000000       0.00000000       0.00000000       0.00000000       0.00000000       0.00000000       0.00000000       0.00000000       0.00000000       0.00000000