# File generated by Flopy version 3.4.3 on 05/26/2026 at 20:04:53.
BEGIN options
  SAVE_FLOWS
  SAVE_SPECIFIC_DISCHARGE
  SAVE_SATURATION
END options

BEGIN griddata
  icelltype
    CONSTANT  1
  k
    CONSTANT       5.40000000
  k33
    CONSTANT       0.54000000
END griddata

