# File generated by Flopy version 3.4.3 on 05/26/2026 at 20:04:54.
BEGIN options
  SAVE_FLOWS
END options

BEGIN dimensions
  MAXBOUND  64
END dimensions

BEGIN period  1
  1 63 22       6.70560000     250.00000000
  1 63 23       6.70560000     250.00000000
  1 64 21       6.70560000     250.00000000
  1 64 22       6.70560000     250.00000000
  1 65 20       7.31520000     250.00000000
  1 65 21       6.70560000     250.00000000
  1 66 20       6.70560000     250.00000000
  1 67 20       7.01040000     250.00000000
  1 68 20       7.62000000     250.00000000
  1 69 20       8.22960000     250.00000000
  1 70 20       8.83920000     250.00000000
  1 71 20       8.83920000     250.00000000
  1 72 20       8.83920000     250.00000000
  1 73 20       8.83920000     250.00000000
  1 74 20       8.83920000     250.00000000
  1 74 21       8.83920000     250.00000000
  1 75 21       8.83920000     250.00000000
  1 76 21       8.83920000     250.00000000
  1 77 21       8.83920000     250.00000000
  1 78 21       8.83920000     250.00000000
  1 79 21       9.14400000     250.00000000
  1 80 21       8.83920000     250.00000000
  1 81 21       9.14400000     250.00000000
  1 82 21       9.14400000     250.00000000
  1 83 21       9.14400000     250.00000000
  1 84 21       9.14400000     250.00000000
  1 85 21       8.53440000     250.00000000
  1 86 21       8.83920000     250.00000000
  1 86 22       8.83920000     250.00000000
  1 87 22       8.83920000     250.00000000
  1 88 22       8.83920000     250.00000000
  1 89 22       9.14400000     250.00000000
  1 90 22       9.14400000     250.00000000
  1 91 22       8.83920000     250.00000000
  1 92 22       8.83920000     250.00000000
  1 93 22       8.83920000     250.00000000
  1 94 22       8.53440000     250.00000000
  1 95 22       8.53440000     250.00000000
  1 96 22       8.53440000     250.00000000
  1 97 22       8.53440000     250.00000000
  1 98 22       8.22960000     250.00000000
  1 98 23       8.22960000     250.00000000
  1 99 23       8.22960000     250.00000000
  1 100 23       8.22960000     250.00000000
  1 101 23       8.22960000     250.00000000
  1 102 23       8.22960000     250.00000000
  1 103 23       7.92480000     250.00000000
  1 104 23       7.92480000     250.00000000
  1 105 23       7.92480000     250.00000000
  1 106 23       7.92480000     250.00000000
  1 107 23       7.62000000     250.00000000
  1 108 23       7.62000000     250.00000000
  1 109 23       7.31520000     250.00000000
  1 110 23       7.31520000     250.00000000
  1 110 24       7.01040000     250.00000000
  1 111 24       7.01040000     250.00000000
  1 112 24       6.70560000     250.00000000
  1 113 24       6.70560000     250.00000000
  1 114 24       6.70560000     250.00000000
  1 115 24       6.40080000     250.00000000
  1 116 24       6.40080000     250.00000000
  1 117 24       6.40080000     250.00000000
  1 118 24       6.70560000     250.00000000
  1 119 24       6.40080000     250.00000000
END period  1

