# File generated by Flopy version 3.4.3 on 02/03/2025 at 22:04:08.
BEGIN options
  PRINT_INPUT
END options

BEGIN continuous  FILEOUT  head_obs_filtered.csv
    OPEN/CLOSE  'head.obs_continuous_head_obs_filtered.csv.txt'
END continuous  FILEOUT  head_obs_filtered.csv

