# File generated by Flopy version 3.5.0 on 04/21/2024 at 20:32:16.
BEGIN options
  PRINT_INPUT
  PRINT_FLOWS
  SAVE_FLOWS
END options

BEGIN dimensions
  MAXBOUND  2334
END dimensions

BEGIN period  1
  1 56 286 3.75548182E-01 1.00000000E+01 0
  1 56 287 0.00000000E+00 1.00000000E+01 0
  1 57 284 7.67946323E-01 1.00000000E+01 0
  1 57 285 0.00000000E+00 1.00000000E+01 0
  1 57 286 0.00000000E+00 1.00000000E+01 0
  1 57 287 0.00000000E+00 1.00000000E+01 0
  1 58 283 5.42376672E+00 1.00000000E+01 0
  1 58 284 7.67946323E-01 1.00000000E+01 0
  1 58 285 0.00000000E+00 1.00000000E+01 0
  1 58 286 0.00000000E+00 1.00000000E+01 0
  1 58 287 0.00000000E+00 1.00000000E+01 0
  1 59 281 6.56663214E+00 1.00000000E+01 0
  1 59 282 4.51224178E+00 1.00000000E+01 0
  1 59 283 5.08847506E+00 1.00000000E+01 0
  1 59 284 3.35419710E+00 1.00000000E+01 0
  1 59 285 2.43336786E+00 1.00000000E+01 0
  1 59 286 4.56509172E-01 1.00000000E+01 0
  1 59 287 0.00000000E+00 1.00000000E+01 0
  1 60 280 5.97521960E+00 1.00000000E+01 0
  1 60 281 5.21010893E+00 1.00000000E+01 0
  1 60 282 4.92437809E+00 1.00000000E+01 0
  1 60 283 5.00000000E+00 1.00000000E+01 0
  1 60 284 4.10970662E+00 1.00000000E+01 0
  1 60 285 3.13093817E+00 1.00000000E+01 0
  1 60 286 2.82618238E+00 1.00000000E+01 0
  1 60 287 5.20203832E-01 1.00000000E+01 0
  1 61 278 4.76865952E+00 1.00000000E+01 0
  1 61 279 4.99645115E+00 1.00000000E+01 0
  1 61 280 5.97521960E+00 1.00000000E+01 0
  1 61 281 5.04601196E+00 1.00000000E+01 0
  1 61 282 1.49291995E+00 1.00000000E+01 0
  1 61 283 1.15670240E+00 1.00000000E+01 0
  1 61 284 9.25361919E-01 1.00000000E+01 0
  1 61 285 6.94021439E-01 1.00000000E+01 0
  1 61 286 6.94021439E-01 1.00000000E+01 0
  1 62 277 6.49485594E+00 1.00000000E+01 0
  1 62 278 6.49485594E+00 1.00000000E+01 0
  1 62 279 6.49485594E+00 1.00000000E+01 0
  1 62 280 5.97521960E+00 1.00000000E+01 0
  1 62 281 1.53893190E+00 1.00000000E+01 0
  1 63 276 5.12029162E+00 1.00000000E+01 0
  1 63 277 8.45239284E+00 1.00000000E+01 0
  1 63 278 8.29324852E+00 1.00000000E+01 0
  1 63 279 1.91662507E+00 1.00000000E+01 0
  1 63 280 1.64282148E+00 1.00000000E+01 0
  1 64 275 5.00000000E+00 1.00000000E+01 0
  1 64 276 6.65051297E+00 1.00000000E+01 0
  1 64 277 1.04099297E+01 1.00000000E+01 0
  1 64 278 9.54582055E+00 1.00000000E+01 0
  1 65 274 5.68373332E+00 1.00000000E+01 0
  1 65 275 7.29533204E+00 1.00000000E+01 0
  1 65 276 9.97551651E+00 1.00000000E+01 0
  1 65 277 3.47893350E+00 1.00000000E+01 0
  1 65 278 3.16266682E+00 1.00000000E+01 0
  1 66 274 6.20521783E+00 1.00000000E+01 0
  1 66 275 8.24413209E+00 1.00000000E+01 0
  1 66 276 1.03383961E+01 1.00000000E+01 0
  1 66 277 0.00000000E+00 1.00000000E+01 0
  1 67 273 5.12384047E+00 1.00000000E+01 0
  1 67 274 6.94909696E+00 1.00000000E+01 0
  1 67 275 8.46876681E+00 1.00000000E+01 0
  1 67 276 3.28442371E+00 1.00000000E+01 0
  1 68 273 5.74387914E+00 1.00000000E+01 0
  1 68 274 7.30782675E+00 1.00000000E+01 0
  1 68 275 8.56618771E+00 1.00000000E+01 0
  1 68 276 0.00000000E+00 1.00000000E+01 0
  1 69 272 5.29014404E+00 1.00000000E+01 0
  1 69 273 6.72264759E+00 1.00000000E+01 0
  1 69 274 8.19761423E+00 1.00000000E+01 0
  1 69 275 8.26760374E+00 1.00000000E+01 0
  1 70 272 5.86771961E+00 1.00000000E+01 0
  1 70 273 8.27899160E+00 1.00000000E+01 0
  1 70 274 9.57757557E+00 1.00000000E+01 0
  1 70 275 3.80181991E+00 1.00000000E+01 0
  1 71 271 6.00000000E+00 1.00000000E+01 0
  1 71 272 7.40283208E+00 1.00000000E+01 0
  1 71 273 9.68018448E+00 1.00000000E+01 0
  1 71 274 8.52017574E+00 1.00000000E+01 0
  1 71 275 0.00000000E+00 1.00000000E+01 0
  1 72 270 6.83995779E+00 1.00000000E+01 0
  1 72 271 7.40283208E+00 1.00000000E+01 0
  1 72 272 9.07022493E+00 1.00000000E+01 0
  1 72 273 9.87615953E+00 1.00000000E+01 0
  1 72 274 4.18398782E+00 1.00000000E+01 0
  1 73 270 6.88895117E+00 1.00000000E+01 0
  1 73 271 7.81872624E+00 1.00000000E+01 0
  1 73 272 9.48611909E+00 1.00000000E+01 0
  1 73 273 8.37155486E+00 1.00000000E+01 0
  1 73 274 0.00000000E+00 1.00000000E+01 0
  1 74 270 7.37507026E+00 1.00000000E+01 0
  1 74 271 7.98529873E+00 1.00000000E+01 0
  1 74 272 9.00000000E+00 1.00000000E+01 0
  1 74 273 7.88543578E+00 1.00000000E+01 0
  1 74 274 0.00000000E+00 1.00000000E+01 0
  1 75 269 7.09771786E+00 1.00000000E+01 0
  1 75 270 8.78932370E+00 1.00000000E+01 0
  1 75 271 9.94283563E+00 1.00000000E+01 0
  1 75 272 1.04142534E+01 1.00000000E+01 0
  1 75 273 8.92816781E+00 1.00000000E+01 0
  1 76 269 7.62630005E+00 1.00000000E+01 0
  1 76 270 1.01875351E+01 1.00000000E+01 0
  1 76 271 1.11663036E+01 1.00000000E+01 0
  1 76 272 1.20000000E+01 1.00000000E+01 0
  1 76 273 1.05139144E+01 1.00000000E+01 0
  1 77 269 8.91316418E+00 1.00000000E+01 0
  1 77 270 1.01875351E+01 1.00000000E+01 0
  1 77 271 1.13326072E+01 1.00000000E+01 0
  1 77 272 1.22838827E+01 1.00000000E+01 0
  1 77 273 1.05139144E+01 1.00000000E+01 0
  1 78 269 9.79123332E+00 1.00000000E+01 0
  1 78 270 9.77981197E+00 1.00000000E+01 0
  1 78 271 1.13326072E+01 1.00000000E+01 0
  1 78 272 1.24472048E+01 1.00000000E+01 0
  1 78 273 1.05139144E+01 1.00000000E+01 0
  1 79 270 9.00000000E+00 1.00000000E+01 0
  1 79 271 1.03933204E+01 1.00000000E+01 0
  1 79 272 1.20000000E+01 1.00000000E+01 0
  1 79 273 1.05139144E+01 1.00000000E+01 0
  1 79 274 0.00000000E+00 1.00000000E+01 0
  1 80 270 9.00000000E+00 1.00000000E+01 0
  1 80 271 9.16630358E+00 1.00000000E+01 0
  1 80 272 1.15596239E+01 1.00000000E+01 0
  1 80 273 1.05139144E+01 1.00000000E+01 0
  1 80 274 3.15181374E+00 1.00000000E+01 0
  1 81 270 8.65597149E+00 1.00000000E+01 0
  1 81 271 8.82227507E+00 1.00000000E+01 0
  1 81 272 9.94611553E+00 1.00000000E+01 0
  1 81 273 1.16559715E+01 1.00000000E+01 0
  1 81 274 1.04246645E+01 1.00000000E+01 0
  1 82 271 7.84350662E+00 1.00000000E+01 0
  1 82 272 9.29014404E+00 1.00000000E+01 0
  1 82 273 1.06772030E+01 1.00000000E+01 0
  1 82 274 1.06772030E+01 1.00000000E+01 0
  1 82 275 3.22796960E+00 1.00000000E+01 0
  1 83 271 7.16630358E+00 1.00000000E+01 0
  1 83 272 8.84350661E+00 1.00000000E+01 0
  1 83 273 9.82227506E+00 1.00000000E+01 0
  1 83 274 9.89739108E+00 1.00000000E+01 0
  1 83 275 8.88466097E+00 1.00000000E+01 0
  1 83 276 0.00000000E+00 1.00000000E+01 0
  1 84 272 8.14507202E+00 1.00000000E+01 0
  1 84 273 8.84350661E+00 1.00000000E+01 0
  1 84 274 9.61705723E+00 1.00000000E+01 0
  1 84 275 8.91862264E+00 1.00000000E+01 0
  1 84 276 1.76150440E+00 1.00000000E+01 0
  1 84 287 1.40166929E+00 1.00000000E+01 0
  1 84 288 1.40166929E+00 1.00000000E+01 0
  1 84 289 1.40166929E+00 1.00000000E+01 0
  1 84 290 1.68200315E+00 1.00000000E+01 0
  1 84 291 1.70400952E+00 1.00000000E+01 0
  1 84 292 1.96233701E+00 1.00000000E+01 0
  1 84 293 1.96233701E+00 1.00000000E+01 0
  1 85 272 8.00000000E+00 1.00000000E+01 0
  1 85 273 8.12384047E+00 1.00000000E+01 0
  1 85 274 9.00000000E+00 1.00000000E+01 0
  1 85 275 8.91862264E+00 1.00000000E+01 0
  1 85 276 7.51883353E+00 1.00000000E+01 0
  1 85 277 1.54131637E+00 1.00000000E+01 0
  1 85 285 6.40820686E-01 1.00000000E+01 0
  1 85 286 1.29551154E+00 1.00000000E+01 0
  1 85 287 4.13299361E+00 1.00000000E+01 0
  1 85 288 5.00000000E+00 1.00000000E+01 0
  1 85 289 5.00000000E+00 1.00000000E+01 0
  1 85 290 5.76290406E+00 1.00000000E+01 0
  1 85 291 6.74167251E+00 1.00000000E+01 0
  1 85 292 7.00000000E+00 1.00000000E+01 0
  1 85 293 7.00000000E+00 1.00000000E+01 0
  1 85 294 4.06787121E+00 1.00000000E+01 0
  1 85 295 1.81371616E+00 1.00000000E+01 0
  1 86 273 7.88596971E+00 1.00000000E+01 0
  1 86 274 8.65952033E+00 1.00000000E+01 0
  1 86 275 8.60563585E+00 1.00000000E+01 0
  1 86 276 8.00000000E+00 1.00000000E+01 0
  1 86 277 6.96547097E+00 1.00000000E+01 0
  1 86 278 1.66509530E+00 1.00000000E+01 0
  1 86 279 1.66509530E+00 1.00000000E+01 0
  1 86 283 1.66509530E+00 1.00000000E+01 0
  1 86 284 1.53693116E+00 1.00000000E+01 0
  1 86 285 4.58317990E+00 1.00000000E+01 0
  1 86 286 5.23787076E+00 1.00000000E+01 0
  1 86 287 5.17340128E+00 1.00000000E+01 0
  1 86 288 5.00000000E+00 1.00000000E+01 0
  1 86 289 5.02200637E+00 1.00000000E+01 0
  1 86 290 5.52503330E+00 1.00000000E+01 0
  1 86 291 6.50380175E+00 1.00000000E+01 0
  1 86 292 6.52425848E+00 1.00000000E+01 0
  1 86 293 6.76212924E+00 1.00000000E+01 0
  1 86 294 6.76212924E+00 1.00000000E+01 0
  1 86 295 4.30574199E+00 1.00000000E+01 0
  1 86 296 0.00000000E+00 1.00000000E+01 0
  1 87 274 7.78336079E+00 1.00000000E+01 0
  1 87 275 7.08137736E+00 1.00000000E+01 0
  1 87 276 7.78336079E+00 1.00000000E+01 0
  1 87 277 7.78336079E+00 1.00000000E+01 0
  1 87 278 6.98231730E+00 1.00000000E+01 0
  1 87 279 6.78336079E+00 1.00000000E+01 0
  1 87 280 1.25665887E+00 1.00000000E+01 0
  1 87 282 1.29983524E+00 1.00000000E+01 0
  1 87 283 6.91152494E+00 1.00000000E+01 0
  1 87 284 6.10970662E+00 1.00000000E+01 0
  1 87 285 6.00000000E+00 1.00000000E+01 0
  1 87 286 6.00000000E+00 1.00000000E+01 0
  1 87 287 5.39004048E+00 1.00000000E+01 0
  1 87 288 5.21663921E+00 1.00000000E+01 0
  1 87 289 6.00077482E+00 1.00000000E+01 0
  1 87 290 5.45373514E+00 1.00000000E+01 0
  1 87 291 5.43327841E+00 1.00000000E+01 0
  1 87 292 5.72044096E+00 1.00000000E+01 0
  1 87 293 6.00000000E+00 1.00000000E+01 0
  1 87 294 6.67797785E+00 1.00000000E+01 0
  1 87 295 7.65674630E+00 1.00000000E+01 0
  1 87 296 4.64899572E+00 1.00000000E+01 0
  1 88 275 6.80459234E+00 1.00000000E+01 0
  1 88 276 7.19540766E+00 1.00000000E+01 0
  1 88 277 7.00000000E+00 1.00000000E+01 0
  1 88 278 6.80459234E+00 1.00000000E+01 0
  1 88 279 6.00354885E+00 1.00000000E+01 0
  1 88 280 5.19540766E+00 1.00000000E+01 0
  1 88 281 4.24141961E+00 1.00000000E+01 0
  1 88 282 5.67010532E+00 1.00000000E+01 0
  1 88 283 6.71611728E+00 1.00000000E+01 0
  1 88 284 6.10970662E+00 1.00000000E+01 0
  1 88 285 5.93553051E+00 1.00000000E+01 0
  1 88 286 6.19540766E+00 1.00000000E+01 0
  1 88 287 6.21741404E+00 1.00000000E+01 0
  1 88 288 6.58622297E+00 1.00000000E+01 0
  1 88 289 7.37035859E+00 1.00000000E+01 0
  1 88 290 7.58622297E+00 1.00000000E+01 0
  1 88 291 6.10287795E+00 1.00000000E+01 0
  1 88 292 5.91584861E+00 1.00000000E+01 0
  1 88 293 6.00000000E+00 1.00000000E+01 0
  1 88 294 6.00000000E+00 1.00000000E+01 0
  1 88 295 7.31349259E+00 1.00000000E+01 0
  1 88 296 8.19540766E+00 1.00000000E+01 0
  1 88 297 3.28114214E+00 1.00000000E+01 0
  1 89 275 6.18559749E+00 1.00000000E+01 0
  1 89 276 7.65164779E+00 1.00000000E+01 0
  1 89 277 6.82582389E+00 1.00000000E+01 0
  1 89 278 6.00000000E+00 1.00000000E+01 0
  1 89 279 6.00000000E+00 1.00000000E+01 0
  1 89 280 6.00000000E+00 1.00000000E+01 0
  1 89 281 5.17417611E+00 1.00000000E+01 0
  1 89 282 5.28110870E+00 1.00000000E+01 0
  1 89 283 5.91152494E+00 1.00000000E+01 0
  1 89 284 6.00000000E+00 1.00000000E+01 0
  1 89 285 5.21741404E+00 1.00000000E+01 0
  1 89 286 7.00000000E+00 1.00000000E+01 0
  1 89 287 7.47824651E+00 1.00000000E+01 0
  1 89 288 8.45701496E+00 1.00000000E+01 0
  1 89 294 6.00000000E+00 1.00000000E+01 0
  1 89 295 7.31349259E+00 1.00000000E+01 0
  1 89 296 8.63551474E+00 1.00000000E+01 0
  1 89 297 5.03903625E+00 1.00000000E+01 0
  1 90 277 6.15294456E+00 1.00000000E+01 0
  1 90 278 6.00000000E+00 1.00000000E+01 0
  1 90 279 6.00000000E+00 1.00000000E+01 0
  1 90 280 5.87183585E+00 1.00000000E+01 0
  1 90 281 6.00000000E+00 1.00000000E+01 0
  1 90 282 6.77981193E+00 1.00000000E+01 0
  1 90 283 6.24141962E+00 1.00000000E+01 0
  1 90 284 6.19618249E+00 1.00000000E+01 0
  1 90 285 7.02200638E+00 1.00000000E+01 0
  1 90 286 7.15294456E+00 1.00000000E+01 0
  1 90 295 7.46643715E+00 1.00000000E+01 0
  1 90 296 8.63551474E+00 1.00000000E+01 0
  1 90 297 8.69411089E+00 1.00000000E+01 0
  1 90 298 3.35664616E+00 1.00000000E+01 0
  1 91 278 6.37745631E+00 1.00000000E+01 0
  1 91 279 6.26342601E+00 1.00000000E+01 0
  1 91 280 5.18127381E+00 1.00000000E+01 0
  1 91 281 5.95398804E+00 1.00000000E+01 0
  1 91 282 6.06446949E+00 1.00000000E+01 0
  1 91 283 7.08647588E+00 1.00000000E+01 0
  1 91 284 8.15371939E+00 1.00000000E+01 0
  1 91 295 6.86828699E+00 1.00000000E+01 0
  1 91 296 7.87589047E+00 1.00000000E+01 0
  1 91 297 7.37629461E+00 1.00000000E+01 0
  1 91 298 2.84863855E+00 1.00000000E+01 0
  1 92 295 6.33144436E+00 1.00000000E+01 0
  1 92 296 6.33144436E+00 1.00000000E+01 0
  1 92 297 6.11048145E+00 1.00000000E+01 0
  1 92 298 2.55217164E+00 1.00000000E+01 0
  1 93 294 8.53445551E+00 1.00000000E+01 0
  1 93 295 9.17849981E+00 1.00000000E+01 0
  1 93 296 8.63223497E+00 1.00000000E+01 0
  1 93 297 6.76096748E+00 1.00000000E+01 0
  1 93 298 2.22388922E+00 1.00000000E+01 0
  1 94 293 9.83524611E+00 1.00000000E+01 0
  1 94 294 1.08820329E+01 1.00000000E+01 0
  1 94 295 1.12040551E+01 1.00000000E+01 0
  1 94 296 1.11360367E+01 1.00000000E+01 0
  1 94 297 4.24288492E+00 1.00000000E+01 0
  1 95 292 1.04408819E+01 1.00000000E+01 0
  1 95 293 1.23984188E+01 1.00000000E+01 0
  1 95 294 1.36779778E+01 1.00000000E+01 0
  1 95 295 1.33432537E+01 1.00000000E+01 0
  1 95 296 1.30000000E+01 1.00000000E+01 0
  1 95 297 4.40609010E+00 1.00000000E+01 0
  1 96 292 1.04408819E+01 1.00000000E+01 0
  1 96 293 1.23984188E+01 1.00000000E+01 0
  1 96 294 1.36779778E+01 1.00000000E+01 0
  1 96 295 1.33688090E+01 1.00000000E+01 0
  1 96 296 4.76386360E+00 1.00000000E+01 0
  1 96 297 0.00000000E+00 1.00000000E+01 0
  1 97 291 8.47902132E+00 1.00000000E+01 0
  1 97 292 1.04365582E+01 1.00000000E+01 0
  1 97 293 1.23811240E+01 1.00000000E+01 0
  1 97 294 1.43386609E+01 1.00000000E+01 0
  1 97 295 1.42827219E+01 1.00000000E+01 0
  1 97 296 5.04226177E+00 1.00000000E+01 0
  1 98 291 7.74167251E+00 1.00000000E+01 0
  1 98 292 8.05072355E+00 1.00000000E+01 0
  1 98 293 8.74993295E+00 1.00000000E+01 0
  1 98 294 1.04235871E+01 1.00000000E+01 0
  1 98 295 3.84342214E+00 1.00000000E+01 0
  1 99 291 8.70353311E+00 1.00000000E+01 0
  1 99 292 8.24141965E+00 1.00000000E+01 0
  1 99 293 7.30079060E+00 1.00000000E+01 0
  1 99 294 2.67368844E+00 1.00000000E+01 0
  1 100 291 9.48334502E+00 1.00000000E+01 0
  1 100 292 9.22018809E+00 1.00000000E+01 0
  1 100 293 8.24141965E+00 1.00000000E+01 0
  1 100 294 2.57617721E+00 1.00000000E+01 0
  1 101 291 9.74167251E+00 1.00000000E+01 0
  1 101 292 1.07204410E+01 1.00000000E+01 0
  1 101 293 9.52097869E+00 1.00000000E+01 0
  1 101 294 8.24141965E+00 1.00000000E+01 0
  1 101 295 2.10120963E+00 1.00000000E+01 0
  1 102 256 7.41338907E+00 1.00000000E+01 0
  1 102 257 6.89816595E+00 1.00000000E+01 0
  1 102 258 6.89816595E+00 1.00000000E+01 0
  1 102 259 7.00000000E+00 1.00000000E+01 0
  1 102 291 1.03268516E+01 1.00000000E+01 0
  1 102 292 1.01777250E+01 1.00000000E+01 0
  1 102 293 9.30079060E+00 1.00000000E+01 0
  1 102 294 8.32202215E+00 1.00000000E+01 0
  1 102 295 2.74602963E+00 1.00000000E+01 0
  1 103 255 8.74185194E+00 1.00000000E+01 0
  1 103 256 7.15351185E+00 1.00000000E+01 0
  1 103 257 6.12306560E+00 1.00000000E+01 0
  1 103 258 6.56537937E+00 1.00000000E+01 0
  1 103 259 7.29801661E+00 1.00000000E+01 0
  1 103 260 7.87693440E+00 1.00000000E+01 0
  1 103 261 7.62138089E+00 1.00000000E+01 0
  1 103 292 9.72044096E+00 1.00000000E+01 0
  1 103 293 9.30079060E+00 1.00000000E+01 0
  1 103 294 8.87693440E+00 1.00000000E+01 0
  1 103 295 8.22018810E+00 1.00000000E+01 0
  1 103 296 1.93135725E+00 1.00000000E+01 0
  1 104 253 1.00186370E+01 1.00000000E+01 0
  1 104 254 9.61705717E+00 1.00000000E+01 0
  1 104 255 8.49399157E+00 1.00000000E+01 0
  1 104 256 7.51522312E+00 1.00000000E+01 0
  1 104 257 6.53645468E+00 1.00000000E+01 0
  1 104 258 6.44231377E+00 1.00000000E+01 0
  1 104 259 7.42108222E+00 1.00000000E+01 0
  1 104 260 8.00000000E+00 1.00000000E+01 0
  1 104 261 8.00000000E+00 1.00000000E+01 0
  1 104 292 9.44088191E+00 1.00000000E+01 0
  1 104 293 9.85570285E+00 1.00000000E+01 0
  1 104 294 9.85570285E+00 1.00000000E+01 0
  1 104 295 9.71140570E+00 1.00000000E+01 0
  1 104 296 3.35625827E+00 1.00000000E+01 0
  1 105 252 1.05697031E+01 1.00000000E+01 0
  1 105 253 1.04515285E+01 1.00000000E+01 0
  1 105 254 9.47276002E+00 1.00000000E+01 0
  1 105 255 8.49399157E+00 1.00000000E+01 0
  1 105 256 7.51522312E+00 1.00000000E+01 0
  1 105 257 3.75518274E+00 1.00000000E+01 0
  1 105 258 4.08936859E+00 1.00000000E+01 0
  1 105 259 7.42108222E+00 1.00000000E+01 0
  1 105 260 8.00000000E+00 1.00000000E+01 0
  1 105 261 8.00000000E+00 1.00000000E+01 0
  1 105 262 7.64261244E+00 1.00000000E+01 0
  1 105 292 9.44088191E+00 1.00000000E+01 0
  1 105 293 1.00000000E+01 1.00000000E+01 0
  1 105 294 1.00000000E+01 1.00000000E+01 0
  1 105 295 1.00000000E+01 1.00000000E+01 0
  1 105 296 3.64485257E+00 1.00000000E+01 0
  1 106 251 1.24397192E+01 1.00000000E+01 0
  1 106 252 1.18700162E+01 1.00000000E+01 0
  1 106 253 1.18132397E+01 1.00000000E+01 0
  1 106 254 1.10992395E+01 1.00000000E+01 0
  1 106 255 5.06038678E+00 1.00000000E+01 0
  1 106 256 1.49408202E+00 1.00000000E+01 0
  1 106 259 3.36865772E+00 1.00000000E+01 0
  1 106 260 8.21309041E+00 1.00000000E+01 0
  1 106 261 8.81323975E+00 1.00000000E+01 0
  1 106 262 8.62647949E+00 1.00000000E+01 0
  1 106 293 9.88596966E+00 1.00000000E+01 0
  1 106 294 1.00000000E+01 1.00000000E+01 0
  1 106 295 1.00000000E+01 1.00000000E+01 0
  1 106 296 3.64485257E+00 1.00000000E+01 0
  1 107 251 1.38181307E+01 1.00000000E+01 0
  1 107 252 1.17068743E+01 1.00000000E+01 0
  1 107 253 1.04159836E+01 1.00000000E+01 0
  1 107 254 5.14358378E+00 1.00000000E+01 0
  1 107 255 2.28790983E+00 1.00000000E+01 0
  1 107 259 3.78973994E+00 1.00000000E+01 0
  1 107 260 9.19185886E+00 1.00000000E+01 0
  1 107 261 9.79200820E+00 1.00000000E+01 0
  1 107 262 9.43462064E+00 1.00000000E+01 0
  1 107 293 8.11519301E+00 1.00000000E+01 0
  1 107 294 8.41598361E+00 1.00000000E+01 0
  1 107 295 3.16201324E+00 1.00000000E+01 0
  1 107 296 2.07991803E+00 1.00000000E+01 0
  1 108 250 1.07582830E+01 1.00000000E+01 0
  1 108 251 1.11461168E+01 1.00000000E+01 0
  1 108 252 1.00000000E+01 1.00000000E+01 0
  1 108 253 6.80751818E+00 1.00000000E+01 0
  1 108 254 2.29223354E+00 1.00000000E+01 0
  1 108 259 3.78973994E+00 1.00000000E+01 0
  1 108 260 9.39985066E+00 1.00000000E+01 0
  1 108 261 1.00000000E+01 1.00000000E+01 0
  1 108 262 9.64261244E+00 1.00000000E+01 0
  1 108 263 8.66384400E+00 1.00000000E+01 0
  1 108 287 5.22922335E+00 1.00000000E+01 0
  1 108 288 5.22922335E+00 1.00000000E+01 0
  1 108 289 5.21586438E+00 1.00000000E+01 0
  1 108 290 5.00000000E+00 1.00000000E+01 0
  1 108 291 5.00000000E+00 1.00000000E+01 0
  1 108 292 5.45844671E+00 1.00000000E+01 0
  1 108 293 5.45844671E+00 1.00000000E+01 0
  1 108 294 6.58517905E+00 1.00000000E+01 0
  1 108 295 2.40277593E+00 1.00000000E+01 0
  1 109 250 9.00000000E+00 1.00000000E+01 0
  1 109 251 9.59093464E+00 1.00000000E+01 0
  1 109 252 1.00000000E+01 1.00000000E+01 0
  1 109 253 4.51528465E+00 1.00000000E+01 0
  1 109 260 3.84911086E+00 1.00000000E+01 0
  1 109 261 9.25045490E+00 1.00000000E+01 0
  1 109 262 9.25045490E+00 1.00000000E+01 0
  1 109 263 8.57814290E+00 1.00000000E+01 0
  1 109 285 6.88048327E+00 1.00000000E+01 0
  1 109 286 6.49909019E+00 1.00000000E+01 0
  1 109 287 5.74954510E+00 1.00000000E+01 0
  1 109 288 5.74954510E+00 1.00000000E+01 0
  1 109 289 5.00000000E+00 1.00000000E+01 0
  1 109 290 4.48755084E+00 1.00000000E+01 0
  1 109 291 4.74167251E+00 1.00000000E+01 0
  1 109 292 5.00000000E+00 1.00000000E+01 0
  1 109 293 5.00000000E+00 1.00000000E+01 0
  1 109 294 5.67797785E+00 1.00000000E+01 0
  1 109 295 2.05952222E+00 1.00000000E+01 0
  1 110 250 9.72831355E+00 1.00000000E+01 0
  1 110 251 9.72831355E+00 1.00000000E+01 0
  1 110 252 1.00000000E+01 1.00000000E+01 0
  1 110 253 4.51528465E+00 1.00000000E+01 0
  1 110 260 3.19880530E+00 1.00000000E+01 0
  1 110 261 8.27168645E+00 1.00000000E+01 0
  1 110 262 8.35738756E+00 1.00000000E+01 0
  1 110 263 8.66384400E+00 1.00000000E+01 0
  1 110 264 7.37015110E+00 1.00000000E+01 0
  1 110 284 9.29464725E+00 1.00000000E+01 0
  1 110 285 8.45662709E+00 1.00000000E+01 0
  1 110 286 7.30433945E+00 1.00000000E+01 0
  1 110 287 6.17340128E+00 1.00000000E+01 0
  1 110 288 6.00000000E+00 1.00000000E+01 0
  1 110 289 5.21586438E+00 1.00000000E+01 0
  1 110 290 4.96540948E+00 1.00000000E+01 0
  1 110 291 5.00000000E+00 1.00000000E+01 0
  1 110 292 5.00000000E+00 1.00000000E+01 0
  1 110 293 5.00000000E+00 1.00000000E+01 0
  1 110 294 3.24022948E+00 1.00000000E+01 0
  1 111 250 1.12243324E+01 1.00000000E+01 0
  1 111 251 1.11161474E+01 1.00000000E+01 0
  1 111 252 1.07070820E+01 1.00000000E+01 0
  1 111 253 4.67389510E+00 1.00000000E+01 0
  1 111 261 2.94325177E+00 1.00000000E+01 0
  1 111 262 7.65030556E+00 1.00000000E+01 0
  1 111 263 8.29291801E+00 1.00000000E+01 0
  1 111 264 7.68507555E+00 1.00000000E+01 0
  1 111 265 6.41338910E+00 1.00000000E+01 0
  1 111 283 1.17070820E+01 1.00000000E+01 0
  1 111 284 1.08167886E+01 1.00000000E+01 0
  1 111 285 9.26187634E+00 1.00000000E+01 0
  1 111 286 7.30433945E+00 1.00000000E+01 0
  1 111 287 6.70708199E+00 1.00000000E+01 0
  1 111 288 6.19463283E+00 1.00000000E+01 0
  1 111 289 5.92294638E+00 1.00000000E+01 0
  1 111 290 2.88716565E+00 1.00000000E+01 0
  1 111 291 1.46459003E+00 1.00000000E+01 0
  1 111 292 1.46459003E+00 1.00000000E+01 0
  1 111 293 1.46459003E+00 1.00000000E+01 0
  1 111 294 1.46459003E+00 1.00000000E+01 0
  1 112 249 1.15386896E+01 1.00000000E+01 0
  1 112 250 1.33717009E+01 1.00000000E+01 0
  1 112 251 1.10079623E+01 1.00000000E+01 0
  1 112 252 4.61711867E+00 1.00000000E+01 0
  1 112 261 2.19904689E+00 1.00000000E+01 0
  1 112 262 5.05814733E+00 1.00000000E+01 0
  1 112 263 7.97799355E+00 1.00000000E+01 0
  1 112 264 7.00000000E+00 1.00000000E+01 0
  1 112 265 6.70630710E+00 1.00000000E+01 0
  1 112 266 7.09923955E+00 1.00000000E+01 0
  1 112 267 6.68585044E+00 1.00000000E+01 0
  1 112 282 1.24168764E+01 1.00000000E+01 0
  1 112 283 1.38806012E+01 1.00000000E+01 0
  1 112 284 1.37434018E+01 1.00000000E+01 0
  1 112 285 1.13194277E+01 1.00000000E+01 0
  1 112 286 2.50338634E+00 1.00000000E+01 0
  1 112 287 2.19904689E+00 1.00000000E+01 0
  1 113 249 1.28316076E+01 1.00000000E+01 0
  1 113 250 1.43878338E+01 1.00000000E+01 0
  1 113 251 1.28181307E+01 1.00000000E+01 0
  1 113 252 4.49280072E+00 1.00000000E+01 0
  1 113 262 0.00000000E+00 1.00000000E+01 0
  1 113 263 2.35309202E+00 1.00000000E+01 0
  1 113 264 7.00000000E+00 1.00000000E+01 0
  1 113 265 7.00000000E+00 1.00000000E+01 0
  1 113 266 7.33538111E+00 1.00000000E+01 0
  1 113 267 6.74877021E+00 1.00000000E+01 0
  1 113 268 6.43462066E+00 1.00000000E+01 0
  1 113 281 9.57259498E+00 1.00000000E+01 0
  1 113 282 1.20664071E+01 1.00000000E+01 0
  1 113 283 1.48230499E+01 1.00000000E+01 0
  1 113 284 1.69938567E+01 1.00000000E+01 0
  1 113 285 6.38146035E+00 1.00000000E+01 0
  1 114 248 8.32050056E+00 1.00000000E+01 0
  1 114 249 1.12568059E+01 1.00000000E+01 0
  1 114 250 1.36820042E+01 1.00000000E+01 0
  1 114 251 9.59720153E+00 1.00000000E+01 0
  1 114 252 0.00000000E+00 1.00000000E+01 0
  1 114 264 4.70075974E+00 1.00000000E+01 0
  1 114 265 7.00000000E+00 1.00000000E+01 0
  1 114 266 7.00000000E+00 1.00000000E+01 0
  1 114 267 7.00000000E+00 1.00000000E+01 0
  1 114 268 6.77000176E+00 1.00000000E+01 0
  1 114 269 6.64338734E+00 1.00000000E+01 0
  1 114 280 9.28677469E+00 1.00000000E+01 0
  1 114 281 9.90797608E+00 1.00000000E+01 0
  1 114 282 1.05787383E+01 1.00000000E+01 0
  1 114 283 1.28044128E+01 1.00000000E+01 0
  1 114 284 7.73550723E+00 1.00000000E+01 0
  1 115 248 7.96388791E+00 1.00000000E+01 0
  1 115 249 1.09001932E+01 1.00000000E+01 0
  1 115 250 1.26121662E+01 1.00000000E+01 0
  1 115 251 5.31784965E+00 1.00000000E+01 0
  1 115 265 2.64490945E+00 1.00000000E+01 0
  1 115 266 2.64490945E+00 1.00000000E+01 0
  1 115 267 7.00000000E+00 1.00000000E+01 0
  1 115 268 7.00000000E+00 1.00000000E+01 0
  1 115 269 7.00000000E+00 1.00000000E+01 0
  1 115 270 6.81246487E+00 1.00000000E+01 0
  1 115 279 9.99645115E+00 1.00000000E+01 0
  1 115 280 1.00000000E+01 1.00000000E+01 0
  1 115 281 1.00000000E+01 1.00000000E+01 0
  1 115 282 1.00000000E+01 1.00000000E+01 0
  1 115 283 1.18230499E+01 1.00000000E+01 0
  1 115 284 1.31647941E+00 1.00000000E+01 0
  1 116 248 7.70833436E+00 1.00000000E+01 0
  1 116 249 1.02992690E+01 1.00000000E+01 0
  1 116 250 1.20112420E+01 1.00000000E+01 0
  1 116 251 5.30786005E+00 1.00000000E+01 0
  1 116 266 0.00000000E+00 1.00000000E+01 0
  1 116 267 2.79353030E+00 1.00000000E+01 0
  1 116 268 7.00000000E+00 1.00000000E+01 0
  1 116 269 7.00000000E+00 1.00000000E+01 0
  1 116 270 6.81246487E+00 1.00000000E+01 0
  1 116 271 6.00000000E+00 1.00000000E+01 0
  1 116 277 8.39907576E+00 1.00000000E+01 0
  1 116 278 8.41675846E+00 1.00000000E+01 0
  1 116 279 9.39552691E+00 1.00000000E+01 0
  1 116 280 9.39907576E+00 1.00000000E+01 0
  1 116 281 9.39907576E+00 1.00000000E+01 0
  1 116 282 4.59594917E+00 1.00000000E+01 0
  1 116 283 4.78890909E+00 1.00000000E+01 0
  1 117 247 6.00000000E+00 1.00000000E+01 0
  1 117 248 7.30925860E+00 1.00000000E+01 0
  1 117 249 9.90019325E+00 1.00000000E+01 0
  1 117 250 9.30985955E+00 1.00000000E+01 0
  1 117 251 0.00000000E+00 1.00000000E+01 0
  1 117 267 0.00000000E+00 1.00000000E+01 0
  1 117 268 2.94215116E+00 1.00000000E+01 0
  1 117 269 7.00000000E+00 1.00000000E+01 0
  1 117 270 6.81246487E+00 1.00000000E+01 0
  1 117 271 6.00000000E+00 1.00000000E+01 0
  1 117 272 5.72476471E+00 1.00000000E+01 0
  1 117 275 6.92199198E+00 1.00000000E+01 0
  1 117 276 7.06014581E+00 1.00000000E+01 0
  1 117 277 7.42030731E+00 1.00000000E+01 0
  1 117 278 7.43799001E+00 1.00000000E+01 0
  1 117 279 7.84061462E+00 1.00000000E+01 0
  1 117 280 7.84061462E+00 1.00000000E+01 0
  1 117 281 4.10484948E+00 1.00000000E+01 0
  1 117 282 6.05191598E-01 1.00000000E+01 0
  1 118 247 7.11692228E+00 1.00000000E+01 0
  1 118 248 7.30925860E+00 1.00000000E+01 0
  1 118 249 9.51647547E+00 1.00000000E+01 0
  1 118 250 4.26617185E+00 1.00000000E+01 0
  1 118 268 1.60998765E+00 1.00000000E+01 0
  1 118 269 3.09077201E+00 1.00000000E+01 0
  1 118 270 6.62492974E+00 1.00000000E+01 0
  1 118 271 5.44153886E+00 1.00000000E+01 0
  1 118 272 5.58661088E+00 1.00000000E+01 0
  1 118 273 6.00000000E+00 1.00000000E+01 0
  1 118 274 6.00000000E+00 1.00000000E+01 0
  1 118 275 6.08137736E+00 1.00000000E+01 0
  1 118 276 6.44153886E+00 1.00000000E+01 0
  1 118 277 6.44153886E+00 1.00000000E+01 0
  1 118 278 6.87622108E+00 1.00000000E+01 0
  1 118 279 3.09077201E+00 1.00000000E+01 0
  1 118 280 3.09077201E+00 1.00000000E+01 0
  1 118 281 3.22083703E-01 1.00000000E+01 0
  1 119 23 6.90766079E+00 1.00000000E+01 0
  1 119 24 9.00617070E+00 1.00000000E+01 0
  1 119 247 7.67586086E+00 1.00000000E+01 0
  1 119 248 8.00000000E+00 1.00000000E+01 0
  1 119 249 8.46277041E+00 1.00000000E+01 0
  1 119 250 3.10267044E+00 1.00000000E+01 0
  1 119 269 1.46136678E+00 1.00000000E+01 0
  1 119 270 4.36460364E+00 1.00000000E+01 0
  1 119 271 5.53722959E+00 1.00000000E+01 0
  1 119 272 5.00000000E+00 1.00000000E+01 0
  1 119 273 5.46277041E+00 1.00000000E+01 0
  1 119 274 5.46277041E+00 1.00000000E+01 0
  1 119 275 5.46277041E+00 1.00000000E+01 0
  1 119 276 5.46277041E+00 1.00000000E+01 0
  1 119 277 2.77662245E+00 1.00000000E+01 0
  1 119 278 3.11561395E+00 1.00000000E+01 0
  1 119 279 0.00000000E+00 1.00000000E+01 0
  1 120 22 7.24736565E+00 1.00000000E+01 0
  1 120 23 1.51636294E+01 1.00000000E+01 0
  1 120 24 1.64104972E+01 1.00000000E+01 0
  1 120 248 7.13863126E+00 1.00000000E+01 0
  1 120 249 8.00000000E+00 1.00000000E+01 0
  1 120 250 7.23065476E+00 1.00000000E+01 0
  1 120 251 4.12798432E+00 1.00000000E+01 0
  1 120 252 3.44237529E+00 1.00000000E+01 0
  1 120 271 2.90401176E+00 1.00000000E+01 0
  1 120 272 2.42000980E+00 1.00000000E+01 0
  1 120 273 2.42000980E+00 1.00000000E+01 0
  1 120 274 2.42000980E+00 1.00000000E+01 0
  1 120 275 2.42000980E+00 1.00000000E+01 0
  1 120 276 2.11928075E+00 1.00000000E+01 0
  1 121 21 0.00000000E+00 1.00000000E+01 0
  1 121 22 1.61531625E+01 1.00000000E+01 0
  1 121 23 1.55052335E+01 1.00000000E+01 0
  1 121 24 1.45999698E+01 1.00000000E+01 0
  1 121 248 6.15986281E+00 1.00000000E+01 0
  1 121 249 7.01046702E+00 1.00000000E+01 0
  1 121 250 7.01046702E+00 1.00000000E+01 0
  1 121 251 7.50523351E+00 1.00000000E+01 0
  1 121 252 6.41097423E+00 1.00000000E+01 0
  1 121 253 2.96859894E+00 1.00000000E+01 0
  1 121 254 2.96859894E+00 1.00000000E+01 0
  1 121 255 2.96394943E+00 1.00000000E+01 0
  1 122 21 8.53545431E+00 1.00000000E+01 0
  1 122 22 1.71352285E+01 1.00000000E+01 0
  1 122 23 1.50418061E+01 1.00000000E+01 0
  1 122 24 1.52945294E+01 1.00000000E+01 0
  1 122 249 5.52646506E+00 1.00000000E+01 0
  1 122 250 5.52646506E+00 1.00000000E+01 0
  1 122 251 5.64386476E+00 1.00000000E+01 0
  1 122 252 5.52646506E+00 1.00000000E+01 0
  1 122 253 5.52646506E+00 1.00000000E+01 0
  1 122 254 5.52723998E+00 1.00000000E+01 0
  1 122 255 6.27869400E+00 1.00000000E+01 0
  1 122 256 3.31474458E+00 1.00000000E+01 0
  1 122 257 2.84120964E+00 1.00000000E+01 0
  1 123 21 9.48383812E+00 1.00000000E+01 0
  1 123 22 1.90927654E+01 1.00000000E+01 0
  1 123 23 1.64728780E+01 1.00000000E+01 0
  1 123 250 5.38783380E+00 1.00000000E+01 0
  1 123 251 5.04323803E+00 1.00000000E+01 0
  1 123 252 5.45230339E+00 1.00000000E+01 0
  1 123 253 5.45152846E+00 1.00000000E+01 0
  1 123 254 5.52723998E+00 1.00000000E+01 0
  1 123 255 6.05370504E+00 1.00000000E+01 0
  1 123 256 6.06291974E+00 1.00000000E+01 0
  1 123 257 5.93254840E+00 1.00000000E+01 0
  1 123 258 5.99377202E-02 1.00000000E+01 0
  1 124 21 1.16391973E+01 1.00000000E+01 0
  1 124 22 2.12494385E+01 1.00000000E+01 0
  1 124 23 1.58426699E+01 1.00000000E+01 0
  1 124 254 5.52723998E+00 1.00000000E+01 0
  1 124 255 6.00000000E+00 1.00000000E+01 0
  1 124 256 6.48477688E+00 1.00000000E+01 0
  1 124 257 6.53645468E+00 1.00000000E+01 0
  1 124 258 5.93254842E+00 1.00000000E+01 0
  1 124 259 2.58643103E+00 1.00000000E+01 0
  1 125 21 1.18547977E+01 1.00000000E+01 0
  1 125 22 2.18292775E+01 1.00000000E+01 0
  1 125 23 1.58413560E+01 1.00000000E+01 0
  1 125 256 6.89461716E+00 1.00000000E+01 0