# File generated by Flopy version 3.5.0 on 04/21/2024 at 20:32:16.
BEGIN options
  PRINT_INPUT
  PRINT_FLOWS
  SAVE_FLOWS
END options

BEGIN dimensions
  MAXBOUND  384
END dimensions

BEGIN period  1
  1 4 242 0.00000000E+00 1.12500000E+01 0
  1 4 243 0.00000000E+00 1.12500000E+01 0
  1 4 244 0.00000000E+00 1.12500000E+01 0
  1 4 245 0.00000000E+00 1.12500000E+01 0
  1 5 241 0.00000000E+00 1.12500000E+01 0
  1 5 242 4.69211173E+00 1.12500000E+01 0
  1 5 245 4.78813174E+00 1.12500000E+01 0
  1 5 246 1.51453796E+00 1.12500000E+01 0
  1 5 247 0.00000000E+00 1.12500000E+01 0
  1 6 241 8.13609471E+00 1.12500000E+01 0
  1 6 247 5.61836879E+00 1.12500000E+01 0
  1 6 248 1.69059298E+00 1.12500000E+01 0
  1 6 249 0.00000000E+00 1.12500000E+01 0
  1 7 240 0.00000000E+00 1.12500000E+01 0
  1 7 241 7.39892508E+00 1.12500000E+01 0
  1 7 249 1.69059299E+00 1.12500000E+01 0
  1 7 250 0.00000000E+00 1.12500000E+01 0
  1 8 240 1.07182625E+01 1.12500000E+01 0
  1 8 250 1.12706201E+00 1.12500000E+01 0
  1 9 239 7.18413429E+00 1.12500000E+01 0
  1 9 240 1.03818996E+01 1.12500000E+01 0
  1 9 250 3.87863439E+00 1.12500000E+01 0
  1 9 251 1.12706202E+00 1.12500000E+01 0
  1 10 180 0.00000000E+00 1.12500000E+01 0
  1 10 181 5.10881158E+00 1.12500000E+01 0
  1 10 182 4.25734298E+00 1.12500000E+01 0
  1 10 183 0.00000000E+00 1.12500000E+01 0
  1 10 237 0.00000000E+00 1.12500000E+01 0
  1 10 238 7.18413431E+00 1.12500000E+01 0
  1 10 239 8.51468596E+00 1.12500000E+01 0
  1 10 251 4.26053395E+00 1.12500000E+01 0
  1 10 252 1.12706203E+00 1.12500000E+01 0
  1 11 179 0.00000000E+00 1.12500000E+01 0
  1 11 180 5.61490946E+00 1.12500000E+01 0
  1 11 183 4.15118523E+00 1.12500000E+01 0
  1 11 184 0.00000000E+00 1.12500000E+01 0
  1 11 236 0.00000000E+00 1.12500000E+01 0
  1 11 237 7.47213341E+00 1.12500000E+01 0
  1 11 252 2.15148456E+00 1.12500000E+01 0
  1 12 178 0.00000000E+00 1.12500000E+01 0
  1 12 179 8.42063452E+00 1.12500000E+01 0
  1 12 184 4.04502748E+00 1.12500000E+01 0
  1 12 185 4.04502748E+00 1.12500000E+01 0
  1 12 186 0.00000000E+00 1.12500000E+01 0
  1 12 216 0.00000000E+00 1.12500000E+01 0
  1 12 217 0.00000000E+00 1.12500000E+01 0
  1 12 218 0.00000000E+00 1.12500000E+01 0
  1 12 219 1.35172174E+00 1.12500000E+01 0
  1 12 220 3.79591468E+00 1.12500000E+01 0
  1 12 221 3.23602198E+00 1.12500000E+01 0
  1 12 222 2.40942323E+00 1.12500000E+01 0
  1 12 223 0.00000000E+00 1.12500000E+01 0
  1 12 224 0.00000000E+00 1.12500000E+01 0
  1 12 235 0.00000000E+00 1.12500000E+01 0
  1 12 236 5.02889406E+00 1.12500000E+01 0
  1 12 252 5.80900550E+00 1.12500000E+01 0
  1 12 253 2.70917079E+00 1.12500000E+01 0
  1 13 175 0.00000000E+00 1.12500000E+01 0
  1 13 176 0.00000000E+00 1.12500000E+01 0
  1 13 177 5.51441761E+00 1.12500000E+01 0
  1 13 178 7.06363599E+00 1.12500000E+01 0
  1 13 186 3.93886972E+00 1.12500000E+01 0
  1 13 187 3.93886972E+00 1.12500000E+01 0
  1 13 188 3.93886972E+00 1.12500000E+01 0
  1 13 189 3.24380483E+00 1.12500000E+01 0
  1 13 190 3.93886972E+00 1.12500000E+01 0
  1 13 191 6.75860793E-01 1.12500000E+01 0
  1 13 192 0.00000000E+00 1.12500000E+01 0
  1 13 193 0.00000000E+00 1.12500000E+01 0
  1 13 194 0.00000000E+00 1.12500000E+01 0
  1 13 195 0.00000000E+00 1.12500000E+01 0
  1 13 196 0.00000000E+00 1.12500000E+01 0
  1 13 197 0.00000000E+00 1.12500000E+01 0
  1 13 198 2.51990456E+00 1.12500000E+01 0
  1 13 199 4.63384514E+00 1.12500000E+01 0
  1 13 200 4.26512586E+00 1.12500000E+01 0
  1 13 201 3.28635741E+00 1.12500000E+01 0
  1 13 202 3.15109578E+00 1.12500000E+01 0
  1 13 203 3.15109578E+00 1.12500000E+01 0
  1 13 204 3.15109578E+00 1.12500000E+01 0
  1 13 205 1.72965562E+00 1.12500000E+01 0
  1 13 206 0.00000000E+00 1.12500000E+01 0
  1 13 212 0.00000000E+00 1.12500000E+01 0
  1 13 213 1.98866834E+00 1.12500000E+01 0
  1 13 214 4.31537184E+00 1.12500000E+01 0
  1 13 215 5.08191423E+00 1.12500000E+01 0
  1 13 216 5.51441761E+00 1.12500000E+01 0
  1 13 224 3.93886972E+00 1.12500000E+01 0
  1 13 225 3.15109578E+00 1.12500000E+01 0
  1 13 226 0.00000000E+00 1.12500000E+01 0
  1 13 227 0.00000000E+00 1.12500000E+01 0
  1 13 233 0.00000000E+00 1.12500000E+01 0
  1 13 234 5.17751495E+00 1.12500000E+01 0
  1 13 235 5.51441761E+00 1.12500000E+01 0
  1 13 253 2.46986838E+00 1.12500000E+01 0
  1 13 254 0.00000000E+00 1.12500000E+01 0
  1 14 170 0.00000000E+00 1.12500000E+01 0
  1 14 171 1.44729454E+00 1.12500000E+01 0
  1 14 172 4.10093932E+00 1.12500000E+01 0
  1 14 173 4.35225856E+00 1.12500000E+01 0
  1 14 174 3.83271197E+00 1.12500000E+01 0
  1 14 175 3.83271197E+00 1.12500000E+01 0
  1 14 206 3.83271197E+00 1.12500000E+01 0
  1 14 207 3.83271197E+00 1.12500000E+01 0
  1 14 208 3.83271197E+00 1.12500000E+01 0
  1 14 209 3.83271197E+00 1.12500000E+01 0
  1 14 210 4.29414030E+00 1.12500000E+01 0
  1 14 211 4.59925436E+00 1.12500000E+01 0
  1 14 212 4.59925436E+00 1.12500000E+01 0
  1 14 227 3.83271197E+00 1.12500000E+01 0
  1 14 228 3.75345160E+00 1.12500000E+01 0
  1 14 229 3.06616958E+00 1.12500000E+01 0
  1 14 230 3.06616958E+00 1.12500000E+01 0
  1 14 231 3.06616958E+00 1.12500000E+01 0
  1 14 232 3.82704613E+00 1.12500000E+01 0
  1 14 233 3.83271197E+00 1.12500000E+01 0
  1 14 254 2.36380009E+00 1.12500000E+01 0
  1 15 165 0.00000000E+00 1.12500000E+01 0
  1 15 166 7.04637590E-01 1.12500000E+01 0
  1 15 167 3.72655422E+00 1.12500000E+01 0
  1 15 168 3.82501863E+00 1.12500000E+01 0
  1 15 169 4.47186506E+00 1.12500000E+01 0
  1 15 170 4.52786637E+00 1.12500000E+01 0
  1 15 254 3.72655422E+00 1.12500000E+01 0
  1 15 255 1.19651207E+00 1.12500000E+01 0
  1 16 159 0.00000000E+00 1.12500000E+01 0
  1 16 160 0.00000000E+00 1.12500000E+01 0
  1 16 161 1.12926867E+00 1.12500000E+01 0
  1 16 162 3.62039647E+00 1.12500000E+01 0
  1 16 163 3.62039647E+00 1.12500000E+01 0
  1 16 164 3.62039647E+00 1.12500000E+01 0
  1 16 165 3.62039647E+00 1.12500000E+01 0
  1 16 255 4.11438804E+00 1.12500000E+01 0
  1 16 256 1.19651209E+00 1.12500000E+01 0
  1 17 155 0.00000000E+00 1.12500000E+01 0
  1 17 156 1.86467970E+00 1.12500000E+01 0
  1 17 157 4.21708646E+00 1.12500000E+01 0
  1 17 158 4.21708646E+00 1.12500000E+01 0
  1 17 159 3.67284891E+00 1.12500000E+01 0
  1 17 256 2.57611562E+00 1.12500000E+01 0
  1 18 149 0.00000000E+00 1.12500000E+01 0
  1 18 150 3.40808096E+00 1.12500000E+01 0
  1 18 151 3.40808096E+00 1.12500000E+01 0
  1 18 152 4.08969715E+00 1.12500000E+01 0
  1 18 153 4.08969715E+00 1.12500000E+01 0
  1 18 154 4.42170866E+00 1.12500000E+01 0
  1 18 155 4.46053339E+00 1.12500000E+01 0
  1 18 256 2.57611562E+00 1.12500000E+01 0
  1 19 145 4.51677542E+00 1.12500000E+01 0
  1 19 146 5.28307713E+00 1.12500000E+01 0
  1 19 147 4.62269249E+00 1.12500000E+01 0
  1 19 148 4.18452321E+00 1.12500000E+01 0
  1 19 149 3.96230785E+00 1.12500000E+01 0
  1 19 256 2.75172339E+00 1.12500000E+01 0
  1 20 141 0.00000000E+00 1.12500000E+01 0
  1 20 142 4.35461636E+00 1.12500000E+01 0
  1 20 143 4.59012924E+00 1.12500000E+01 0
  1 20 144 3.97220770E+00 1.12500000E+01 0
  1 20 145 6.93416056E+00 1.12500000E+01 0
  1 20 146 8.81890535E+00 1.12500000E+01 0
  1 20 256 3.09133875E+00 1.12500000E+01 0
  1 21 138 0.00000000E+00 1.12500000E+01 0
  1 21 139 4.94337232E+00 1.12500000E+01 0
  1 21 140 4.94337232E+00 1.12500000E+01 0
  1 21 141 4.94337232E+00 1.12500000E+01 0
  1 21 256 3.22448341E+00 1.12500000E+01 0
  1 22 130 0.00000000E+00 1.12500000E+01 0
  1 22 131 2.74781370E+00 1.12500000E+01 0
  1 22 135 4.17682993E+00 1.12500000E+01 0
  1 22 136 4.17682993E+00 1.12500000E+01 0
  1 22 137 4.16549821E+00 1.12500000E+01 0
  1 22 138 3.58013994E+00 1.12500000E+01 0
  1 22 256 3.60656187E+00 1.12500000E+01 0
  1 23 98 5.75458439E+00 1.12500000E+01 0
  1 23 99 5.75458439E+00 1.12500000E+01 0
  1 23 100 4.60366752E+00 1.12500000E+01 0
  1 23 101 4.60366752E+00 1.12500000E+01 0
  1 23 102 4.60366752E+00 1.12500000E+01 0
  1 23 103 4.02820908E+00 1.12500000E+01 0
  1 23 104 3.74077766E+00 1.12500000E+01 0
  1 23 105 0.00000000E+00 1.12500000E+01 0
  1 23 129 0.00000000E+00 1.12500000E+01 0
  1 23 130 5.11477402E+00 1.12500000E+01 0
  1 23 131 5.16767376E+00 1.12500000E+01 0
  1 23 132 2.87729220E+00 1.12500000E+01 0
  1 23 133 4.02820908E+00 1.12500000E+01 0
  1 23 134 4.52864114E+00 1.12500000E+01 0
  1 23 135 6.94620517E+00 1.12500000E+01 0
  1 23 256 3.33228001E+00 1.12500000E+01 0
  1 23 257 2.14581871E+00 1.12500000E+01 0
  1 24 96 0.00000000E+00 1.12500000E+01 0
  1 24 97 6.09649578E+00 1.12500000E+01 0
  1 24 98 1.09478161E+01 1.12500000E+01 0
  1 24 105 3.63461991E+00 1.12500000E+01 0
  1 24 106 3.32536133E+00 1.12500000E+01 0
  1 24 107 2.77113444E+00 1.12500000E+01 0
  1 24 108 2.77113444E+00 1.12500000E+01 0
  1 24 109 1.97092393E+00 1.12500000E+01 0
  1 24 129 1.63065733E+00 1.12500000E+01 0
  1 24 257 2.14581871E+00 1.12500000E+01 0
  1 25 94 7.99493008E+00 1.12500000E+01 0
  1 25 95 7.55887778E+00 1.12500000E+01 0
  1 25 96 6.39594406E+00 1.12500000E+01 0
  1 25 109 3.05916148E+00 1.12500000E+01 0
  1 25 110 2.78255569E+00 1.12500000E+01 0
  1 25 111 3.73096737E+00 1.12500000E+01 0
  1 25 112 3.20515612E+00 1.12500000E+01 0
  1 25 129 7.49360605E+00 1.12500000E+01 0
  1 25 257 2.67881405E+00 1.12500000E+01 0
  1 26 93 0.00000000E+00 1.12500000E+01 0
  1 26 94 1.43003800E+01 1.12500000E+01 0
  1 26 112 6.78750264E+00 1.12500000E+01 0
  1 26 113 0.00000000E+00 1.12500000E+01 0
  1 26 128 2.02415701E+00 1.12500000E+01 0
  1 26 129 1.06694204E+01 1.12500000E+01 0
  1 26 257 2.68227339E+00 1.12500000E+01 0
  1 26 258 0.00000000E+00 1.12500000E+01 0
  1 27 92 6.86745132E+00 1.12500000E+01 0
  1 27 93 7.35798356E+00 1.12500000E+01 0
  1 27 113 2.87466600E+00 1.12500000E+01 0
  1 27 127 0.00000000E+00 1.12500000E+01 0
  1 27 128 5.19343891E+00 1.12500000E+01 0
  1 27 258 1.96212895E+00 1.12500000E+01 0
  1 28 90 5.63160824E+00 1.12500000E+01 0
  1 28 91 5.63160824E+00 1.12500000E+01 0
  1 28 92 1.39335032E+01 1.12500000E+01 0
  1 28 113 2.87466600E+00 1.12500000E+01 0
  1 28 114 3.28510481E+00 1.12500000E+01 0
  1 28 115 0.00000000E+00 1.12500000E+01 0
  1 28 124 4.22370618E+00 1.12500000E+01 0
  1 28 125 3.28510481E+00 1.12500000E+01 0
  1 28 126 3.28510481E+00 1.12500000E+01 0
  1 28 127 4.67100069E+00 1.12500000E+01 0
  1 28 258 2.70004561E+00 1.12500000E+01 0
  1 29 89 7.08639241E+00 1.12500000E+01 0
  1 29 90 1.28869235E+01 1.12500000E+01 0
  1 29 115 6.33943356E+00 1.12500000E+01 0
  1 29 116 2.68841482E+00 1.12500000E+01 0
  1 29 120 2.68841482E+00 1.12500000E+01 0
  1 29 122 2.30863514E+00 1.12500000E+01 0
  1 29 123 5.91364516E+00 1.12500000E+01 0
  1 29 124 7.52917790E+00 1.12500000E+01 0
  1 29 258 5.00000000E+00 1.12500000E+01 0
  1 29 259 1.34934605E-01 1.12500000E+01 0
  1 29 265 1.79227655E+00 1.12500000E+01 0
  1 29 266 2.06473789E+00 1.12500000E+01 0
  1 29 267 2.24034568E+00 1.12500000E+01 0
  1 29 268 1.79227655E+00 1.12500000E+01 0
  1 30 88 5.22540670E+00 1.12500000E+01 0
  1 30 89 1.45427161E+01 1.12500000E+01 0
  1 30 116 3.25683396E+00 1.12500000E+01 0
  1 30 118 0.00000000E+00 1.12500000E+01 0
  1 30 119 4.92202360E+00 1.12500000E+01 0
  1 30 120 5.62773187E+00 1.12500000E+01 0
  1 30 121 2.13418793E+00 1.12500000E+01 0
  1 30 122 4.86966066E+00 1.12500000E+01 0
  1 30 259 2.46775134E+00 1.12500000E+01 0
  1 30 260 1.68036342E+00 1.12500000E+01 0
  1 30 261 1.92873908E-01 1.12500000E+01 0
  1 30 263 1.70735034E+00 1.12500000E+01 0
  1 30 264 1.28051276E+00 1.12500000E+01 0
  1 30 265 3.57316241E+00 1.12500000E+01 0
  1 31 86 0.00000000E+00 1.12500000E+01 0
  1 31 87 5.41869723E+00 1.12500000E+01 0
  1 31 88 1.33201738E+01 1.12500000E+01 0
  1 31 116 6.00000000E+00 1.12500000E+01 0
  1 31 117 3.38422328E+00 1.12500000E+01 0
  1 31 118 2.89399344E+00 1.12500000E+01 0
  1 31 261 2.48552356E+00 1.12500000E+01 0
  1 31 262 1.62242414E+00 1.12500000E+01 0
  1 31 263 3.66384400E+00 1.12500000E+01 0
  1 32 84 0.00000000E+00 1.12500000E+01 0
  1 32 85 5.38124279E+00 1.12500000E+01 0
  1 32 86 5.09100924E+00 1.12500000E+01 0
  1 33 83 0.00000000E+00 1.12500000E+01 0
  1 33 84 6.03682584E+00 1.12500000E+01 0
  1 34 83 8.83761011E+00 1.12500000E+01 0
  1 35 82 2.50694015E+00 1.12500000E+01 0
  1 35 83 1.68751163E+01 1.12500000E+01 0
  1 36 82 4.79117253E+00 1.12500000E+01 0
  1 37 82 1.60000000E+01 1.12500000E+01 0
  1 38 81 6.80257186E+00 1.12500000E+01 0
  1 38 82 1.55639477E+01 1.12500000E+01 0
  1 39 79 0.00000000E+00 1.12500000E+01 0
  1 39 80 3.80050484E+00 1.12500000E+01 0
  1 39 81 1.42712086E+01 1.12500000E+01 0
  1 40 78 0.00000000E+00 1.12500000E+01 0
  1 40 79 4.79875680E+00 1.12500000E+01 0
  1 41 63 2.12619583E+00 1.12500000E+01 0
  1 41 64 1.93290530E+00 1.12500000E+01 0
  1 41 65 1.93290530E+00 1.12500000E+01 0
  1 41 66 1.93290530E+00 1.12500000E+01 0
  1 41 67 1.93290530E+00 1.12500000E+01 0
  1 41 68 1.93290530E+00 1.12500000E+01 0
  1 41 77 3.86581061E+00 1.12500000E+01 0
  1 41 78 9.40967131E+00 1.12500000E+01 0
  1 42 62 2.75294368E+00 1.12500000E+01 0
  1 42 63 8.64390007E+00 1.12500000E+01 0
  1 42 68 1.00000000E+01 1.12500000E+01 0
  1 42 69 5.44922653E+00 1.12500000E+01 0
  1 42 77 5.53243942E+00 1.12500000E+01 0
  1 43 60 2.11158401E+00 1.12500000E+01 0
  1 43 61 1.21104604E+01 1.12500000E+01 0
  1 43 62 1.41889053E+01 1.12500000E+01 0
  1 43 69 5.29839910E+00 1.12500000E+01 0
  1 43 70 0.00000000E+00 1.12500000E+01 0
  1 43 77 5.26844605E+00 1.12500000E+01 0
  1 44 59 1.55515055E+00 1.12500000E+01 0
  1 44 60 8.78706681E+00 1.12500000E+01 0
  1 44 70 5.09538786E+00 1.12500000E+01 0
  1 44 71 0.00000000E+00 1.12500000E+01 0
  1 44 74 1.55515055E+00 1.12500000E+01 0
  1 44 75 1.55515055E+00 1.12500000E+01 0
  1 44 76 7.07136707E+00 1.12500000E+01 0
  1 44 77 1.78704041E+01 1.12500000E+01 0
  1 45 56 0.00000000E+00 1.12500000E+01 0
  1 45 57 1.51710060E+00 1.12500000E+01 0
  1 45 58 9.78059380E+00 1.12500000E+01 0
  1 45 59 1.21083643E+01 1.12500000E+01 0
  1 45 71 7.28259387E+00 1.12500000E+01 0
  1 45 72 1.40873627E+00 1.12500000E+01 0
  1 45 73 5.85054987E+00 1.12500000E+01 0
  1 45 74 1.15427161E+01 1.12500000E+01 0
  1 46 56 1.24284882E+01 1.12500000E+01 0
  1 46 72 1.32613983E+01 1.12500000E+01 0
  1 46 73 1.28041144E+01 1.12500000E+01 0
  1 47 56 1.31595757E+01 1.12500000E+01 0
  1 48 54 7.14714830E-01 1.12500000E+01 0
  1 48 55 7.14714830E-01 1.12500000E+01 0
  1 48 56 1.39636299E+01 1.12500000E+01 0
  1 49 53 3.51571895E-01 1.12500000E+01 0
  1 49 54 1.24002485E+01 1.12500000E+01 0
  1 50 52 3.30986375E-02 1.12500000E+01 0
  1 50 53 1.19548316E+01 1.12500000E+01 0
  1 51 51 0.00000000E+00 1.12500000E+01 0
  1 51 52 1.22402063E+01 1.12500000E+01 0
  1 52 50 0.00000000E+00 1.12500000E+01 0
  1 52 51 1.00469437E+01 1.12500000E+01 0
  1 53 49 0.00000000E+00 1.12500000E+01 0
  1 53 50 9.44324546E+00 1.12500000E+01 0
  1 54 48 0.00000000E+00 1.12500000E+01 0
  1 54 49 9.67679254E+00 1.12500000E+01 0
  1 55 48 9.85653706E+00 1.12500000E+01 0
  1 56 47 1.22474418E+01 1.12500000E+01 0
  1 56 48 1.12971801E+01 1.12500000E+01 0
  1 57 27 4.50843362E+00 1.12500000E+01 0
  1 57 28 8.76757657E+00 1.12500000E+01 0
  1 57 29 0.00000000E+00 1.12500000E+01 0
  1 57 37 0.00000000E+00 1.12500000E+01 0
  1 57 38 0.00000000E+00 1.12500000E+01 0
  1 57 46 0.00000000E+00 1.12500000E+01 0
  1 57 47 1.29104013E+01 1.12500000E+01 0
  1 58 26 2.20427142E+00 1.12500000E+01 0
  1 58 27 1.13352917E+01 1.12500000E+01 0
  1 58 29 9.68391058E+00 1.12500000E+01 0
  1 58 30 9.04043379E+00 1.12500000E+01 0
  1 58 31 7.38123627E+00 1.12500000E+01 0
  1 58 32 0.00000000E+00 1.12500000E+01 0
  1 58 35 0.00000000E+00 1.12500000E+01 0
  1 58 36 1.24574885E+00 1.12500000E+01 0
  1 58 37 6.65883337E+00 1.12500000E+01 0
  1 58 38 5.93973470E+00 1.12500000E+01 0
  1 58 39 5.92264180E+00 1.12500000E+01 0
  1 58 45 0.00000000E+00 1.12500000E+01 0
  1 58 46 9.15589589E+00 1.12500000E+01 0
  1 59 25 3.50339124E+00 1.12500000E+01 0
  1 59 26 9.55691152E+00 1.12500000E+01 0
  1 59 32 7.30010359E+00 1.12500000E+01 0
  1 59 33 7.30010359E+00 1.12500000E+01 0
  1 59 34 7.30940793E+00 1.12500000E+01 0
  1 59 35 7.93427605E+00 1.12500000E+01 0
  1 59 39 6.45268581E+00 1.12500000E+01 0
  1 59 40 6.48898097E+00 1.12500000E+01 0
  1 59 41 0.00000000E+00 1.12500000E+01 0
  1 59 42 3.68280723E-01 1.12500000E+01 0
  1 59 43 1.05445941E+01 1.12500000E+01 0
  1 59 44 9.74760528E+00 1.12500000E+01 0
  1 59 45 9.73347146E+00 1.12500000E+01 0
  1 60 24 0.00000000E+00 1.12500000E+01 0
  1 60 25 3.14507771E+00 1.12500000E+01 0
  1 61 24 1.43325413E+00 1.12500000E+01 0
  1 62 23 1.43325415E+00 1.12500000E+01 0
  1 62 24 5.97942376E+00 1.12500000E+01 0
  1 63 23 6.83023539E+00 1.12500000E+01 0
END period  1

