# File generated by Flopy version 3.4.3 on 05/12/2025 at 07:31:15.
BEGIN options
  PRINT_FLOWS
  SAVE_FLOWS
END options

BEGIN dimensions
  MAXBOUND  384
END dimensions

BEGIN period  1
  1 4 242       0.10000000       0.00183555      -3.65589034
  1 4 243       0.10000000       0.00235527      -3.06749950
  1 4 244       0.10000000       0.00239992      -2.95293402
  1 4 245       0.10000000  4.23453351E-04      -3.15778933
  1 5 241       0.10000000       0.00139943      -3.65034973
  1 5 242       0.10000000       0.00135925      -2.91946044
  1 5 245       0.50000000       0.00212406      -2.69983960
  1 5 246       0.10000000       0.00252594      -2.93009428
  1 5 247       0.10000000       0.00182656      -3.32557411
  1 6 241       0.10000000       0.00256548      -3.35592176
  1 6 247       0.10000000  8.62527369E-04      -3.08780072
  1 6 248       0.10000000       0.00298538      -3.17313806
  1 6 249       0.10000000  8.85389716E-05      -3.59073523
  1 7 240       0.10000000       0.00158227      -3.64623495
  1 7 241       0.50000000       0.00116183      -2.66854393
  1 7 249       0.10000000       0.00325775      -3.14209867
  1 7 250       0.10000000  2.16029048E-05      -3.67767153
  1 8 240       0.10000000       0.00299178      -2.87291144
  1 8 250       0.10000000       0.00301410      -3.06682695
  1 9 239       0.10000000       0.00286146      -3.42830451
  1 9 240       0.10000000  3.08721486E-04      -2.88031356
  1 9 250       0.10000000  7.08806657E-04      -2.99829837
  1 9 251       0.10000000       0.00205730      -3.68290712
  1 10 180       0.10000000       0.00190825      -2.83206485
  1 10 181       0.10000000       0.00260075      -2.94826312
  1 10 182       0.10000000       0.00297444      -2.94852573
  1 10 183       0.10000000  4.22998820E-04      -2.97000001
  1 10 237       0.10000000  3.96175924E-04      -3.42490679
  1 10 238       0.10000000       0.00292126      -2.82126443
  1 10 239       0.50000000  5.30219797E-04      -1.60301642
  1 10 251       0.10000000       0.00222761      -3.16598952
  1 10 252       0.10000000  6.33038492E-04      -3.68658317
  1 11 179       0.50000000       0.00233376      -2.38088927
  1 11 180       0.50000000       0.00101628      -1.47736594
  1 11 183       0.10000000       0.00250286      -2.85114314
  1 11 184       0.10000000       0.00160737      -2.85114314
  1 11 236       0.10000000       0.00123607      -2.70227485
  1 11 237       0.50000000       0.00260935      -1.53870004
  1 11 252       0.10000000       0.00287702      -3.68834952
  1 12 178       0.50000000       0.00228872      -2.33039618
  1 12 179       0.50000000       0.00119245      -1.68563336
  1 12 184       0.50000000       0.00114892      -1.58609723
  1 12 185       0.10000000       0.00268009      -2.87602587
  1 12 186       0.10000000       0.00155898      -2.97009146
  1 12 216       0.10000000       0.00113210      -2.95277657
  1 12 217       0.10000000       0.00233968      -2.90661399
  1 12 218       0.10000000       0.00233954      -2.82056004
  1 12 219       0.10000000       0.00237352      -3.10842625
  1 12 220       0.10000000       0.00235519      -3.38057550
  1 12 221       0.10000000       0.00235748      -3.46202483
  1 12 222       0.10000000       0.00239248      -3.46322985
  1 12 223       0.10000000       0.00242897      -3.46566006
  1 12 224       0.10000000  5.50503543E-04      -3.46678929
  1 12 235       0.10000000       0.00240439      -3.38804877
  1 12 236       0.50000000       0.00162318      -2.34129716
  1 12 252       0.10000000  8.69466099E-04      -3.58108562
  1 12 253       0.10000000       0.00185130      -3.69181327
  1 13 175       0.50000000       0.00123464      -2.63423779
  1 13 176       0.50000000       0.00242041      -2.62923835
  1 13 177       0.50000000       0.00258300      -2.34145156
  1 13 178       0.50000000  7.77350409E-04      -1.56766479
  1 13 186       0.50000000  9.45774692E-04      -1.94143884
  1 13 187       0.10000000       0.00245249      -2.89466127
  1 13 188       0.10000000       0.00240878      -2.89094983
  1 13 189       0.10000000       0.00237017      -2.89317480
  1 13 190       0.10000000       0.00236487      -2.90266081
  1 13 191       0.10000000       0.00234748      -2.90450824
  1 13 192       0.10000000       0.00233877      -2.90161203
  1 13 193       0.10000000       0.00237554      -2.90449080
  1 13 194       0.10000000       0.00238790      -2.90794641
  1 13 195       0.10000000       0.00235025      -2.91022195
  1 13 196       0.10000000       0.00236114      -2.90974546
  1 13 197       0.10000000       0.00239073      -2.91325391
  1 13 198       0.10000000       0.00233758      -2.91182191
  1 13 199       0.10000000       0.00234961      -2.91186441
  1 13 200       0.10000000       0.00234103      -2.91037896
  1 13 201       0.10000000       0.00234212      -2.91037896
  1 13 202       0.10000000       0.00236508      -2.91270518
  1 13 203       0.10000000       0.00234797      -2.91270800
  1 13 204       0.10000000       0.00234924      -2.90784329
  1 13 205       0.10000000       0.00236947      -2.91460971
  1 13 206       0.10000000  8.08180795E-04      -2.91655186
  1 13 212       0.10000000       0.00165565      -2.92681478
  1 13 213       0.10000000       0.00238114      -2.92902704
  1 13 214       0.10000000       0.00251434      -2.92419128
  1 13 215       0.50000000       0.00240095      -2.34398093
  1 13 216       0.50000000       0.00129012      -1.63424121
  1 13 224       0.50000000       0.00206276      -2.29578311
  1 13 225       0.10000000       0.00249314      -3.30516795
  1 13 226       0.10000000       0.00243187      -3.50451338
  1 13 227       0.10000000       0.00115423      -3.50659450
  1 13 233       0.10000000       0.00116154      -3.56255052
  1 13 234       0.10000000       0.00287975      -3.24804216
  1 13 235       0.50000000  6.75676086E-04      -2.36649027
  1 13 253       0.10000000       0.00260854      -3.69449392
  1 13 254       0.10000000  1.39039239E-04      -3.69624887
  1 14 170       0.10000000       0.00187475      -2.76112241
  1 14 171       0.10000000       0.00237854      -2.77714814
  1 14 172       0.50000000       0.00237182      -2.65297726
  1 14 173       0.50000000       0.00237534      -2.00346227
  1 14 174       0.50000000       0.00234948      -1.56499552
  1 14 175       0.50000000       0.00123469      -1.57441002
  1 14 206       0.50000000       0.00162127      -1.50490952
  1 14 207       0.50000000       0.00243726      -1.46767016
  1 14 208       0.50000000       0.00234893      -1.39220726
  1 14 209       0.50000000       0.00237355      -1.35801791
  1 14 210       0.50000000       0.00234327      -1.32743153
  1 14 211       0.50000000       0.00239655      -1.46515498
  1 14 212       0.50000000  7.53740526E-04      -1.45468843
  1 14 227       0.50000000       0.00126675      -1.50366655
  1 14 228       0.50000000       0.00239814      -1.65656507
  1 14 229       0.50000000       0.00246268      -2.51068556
  1 14 230       0.10000000       0.00238187      -3.01260232
  1 14 231       0.10000000       0.00237154      -2.85470626
  1 14 232       0.50000000       0.00275074      -2.59585086
  1 14 233       0.50000000       0.00178063      -1.98314385
  1 14 254       0.10000000       0.00304026      -3.66626687
  1 15 165       0.50000000       0.00197450      -2.66056961
  1 15 166       0.50000000       0.00242792      -2.50330676
  1 15 167       0.50000000       0.00242257      -2.27385448
  1 15 168       0.50000000       0.00238669      -1.97549453
  1 15 169       0.50000000       0.00242453      -1.50753746
  1 15 170       0.50000000  5.45706371E-04      -1.57734470
  1 15 254       0.10000000  6.99275081E-04      -2.95559641
  1 15 255       0.10000000       0.00243758      -3.70399768
  1 16 159       0.50000000  9.41142595E-04      -1.55172097
  1 16 160       0.50000000       0.00238366      -1.64044654
  1 16 161       0.50000000       0.00245002      -1.95131865
  1 16 162       0.50000000       0.00239581      -2.41387667
  1 16 163       0.50000000       0.00248520      -2.66217080
  1 16 164       0.10000000       0.00238675      -2.70535943
  1 16 165       0.50000000  4.03012658E-04      -2.64976887
  1 16 255       0.10000000       0.00102740      -3.68888613
  1 16 256       0.10000000       0.00252121      -3.68923862
  1 17 155       0.50000000       0.00240532      -1.59114283
  1 17 156       0.50000000       0.00237214      -1.75098760
  1 17 157       0.50000000       0.00241807      -2.32795988
  1 17 158       0.50000000       0.00244379      -2.66876543
  1 17 159       0.50000000       0.00141898      -2.65720035
  1 17 256       0.50000000       0.00248776      -2.38209629
  1 18 149       0.50000000  8.16509446E-04      -1.70330934
  1 18 150       0.50000000       0.00246677      -1.67711290
  1 18 151       0.50000000       0.00235618      -1.61212858
  1 18 152       0.50000000       0.00237168      -1.56358755
  1 18 153       0.50000000       0.00237949      -1.77651352
  1 18 154       0.50000000       0.00237614      -1.73768837
  1 18 155       0.50000000  4.75968750E-05      -1.59070866
  1 18 256       0.50000000       0.00233575      -2.38210515
  1 19 145       0.50000000       0.00174159      -2.35850843
  1 19 146       0.50000000       0.00231423      -2.67300281
  1 19 147       0.50000000       0.00241923      -2.64087694
  1 19 148       0.50000000       0.00238645      -2.61679573
  1 19 149       0.50000000       0.00158409      -2.05026391
  1 19 256       0.50000000       0.00233756      -1.89807882
  1 20 141       0.50000000       0.00111197      -2.40833436
  1 20 142       0.50000000       0.00244508      -2.61870668
  1 20 143       0.50000000       0.00243696      -2.68888004
  1 20 144       0.10000000       0.00250785      -2.70336901
  1 20 145       0.50000000  9.10894295E-04      -2.06885907
  1 20 146       0.50000000  6.81860208E-04      -1.42940795
  1 20 256       0.50000000       0.00233381      -1.77000400
  1 21 138       0.50000000       0.00126552      -2.54116553
  1 21 139       0.10000000       0.00244935      -2.73788902
  1 21 140       0.50000000       0.00260912      -2.11926887
  1 21 141       0.50000000       0.00137483      -1.58503568
  1 21 256       0.50000000       0.00234070      -1.80418401
  1 22 130       0.50000000       0.00141906      -2.60098867
  1 22 131       0.50000000       0.00143325      -1.99895792
  1 22 135       0.50000000       0.00226926      -2.64258683
  1 22 136       0.50000000       0.00243216      -2.64584080
  1 22 137       0.50000000       0.00244804      -2.01589164
  1 22 138       0.50000000       0.00124666      -1.83222417
  1 22 256       0.50000000       0.00246105      -1.77376314
  1 23 98       0.50000000       0.00208862      -2.36722780
  1 23 99       0.50000000       0.00243521      -2.21583448
  1 23 100       0.50000000       0.00239294      -2.39727117
  1 23 101       0.50000000       0.00235344      -2.22024598
  1 23 102       0.50000000       0.00245362      -2.54928386
  1 23 103       0.50000000       0.00238750      -2.57929578
  1 23 104       0.50000000       0.00251593      -2.32188620
  1 23 105       0.50000000       0.00137511      -1.64732891
  1 23 129       0.50000000       0.00196343      -2.57949727
  1 23 130       0.50000000       0.00118859      -1.67689789
  1 23 131       0.50000000       0.00114435      -1.82716555
  1 23 132       0.50000000       0.00253824      -2.57088499
  1 23 133       0.50000000       0.00243097      -1.86816093
  1 23 134       0.50000000       0.00254599      -1.77295831
  1 23 135       0.50000000  2.51575816E-04      -1.64980908
  1 23 256       0.50000000       0.00144446      -1.71786479
  1 23 257       0.10000000       0.00110962      -3.72154841
  1 24 96       0.50000000       0.00111097      -2.24818848
  1 24 97       0.50000000       0.00286015      -2.46170774
  1 24 98       0.50000000  7.58653868E-04      -2.10221595
  1 24 105       0.50000000       0.00182391      -2.50170959
  1 24 106       0.50000000       0.00236041      -2.44968670
  1 24 107       0.50000000       0.00233602      -2.48343767
  1 24 108       0.50000000       0.00237008      -2.51757858
  1 24 109       0.50000000       0.00168938      -2.24657311
  1 24 129       0.50000000       0.00241742      -1.80944570
  1 24 257       0.10000000       0.00241441      -3.72396054
  1 25 94       0.50000000       0.00172908      -1.93483378
  1 25 95       0.50000000       0.00250429      -1.85875460
  1 25 96       0.50000000       0.00136123      -1.41163993
  1 25 109       0.50000000  8.15215031E-04      -1.70029636
  1 25 110       0.50000000       0.00246260      -1.73228561
  1 25 111       0.50000000       0.00247235      -1.74977533
  1 25 112       0.50000000       0.00111298      -1.73305093
  1 25 129       0.50000000       0.00237871      -1.75881899
  1 25 257       0.10000000       0.00239529      -3.72587198
  1 26 93       0.50000000  9.84231160E-04      -1.30267064
  1 26 94       0.89037220       0.00181966      -0.60962780
  1 26 112       0.50000000       0.00175304      -1.95289779
  1 26 113       0.50000000       0.00136753      -2.37694183
  1 26 128       0.50000000       0.00127136      -2.67282061
  1 26 129       0.50000000       0.00144113      -1.77581714
  1 26 257       0.10000000       0.00231239      -3.72606138
  1 26 258       0.10000000  1.27053307E-04      -3.72731012
  1 27 92       0.50000000       0.00173737      -2.27987447
  1 27 93       0.50000000       0.00265105      -1.30421938
  1 27 113       0.50000000       0.00258723      -2.38636634
  1 27 127       0.50000000  4.76339879E-04      -2.63175317
  1 27 128       0.50000000       0.00268673      -2.67282061
  1 27 258       0.10000000       0.00250965      -3.72731012
  1 28 90       0.50000000       0.00251486      -2.13583961
  1 28 91       0.50000000       0.00248189      -2.11627078
  1 28 92       0.50000000  6.91731036E-04      -1.58930815
  1 28 113       0.50000000  9.67680777E-04      -1.60186439
  1 28 114       0.50000000       0.00274491      -2.09366219
  1 28 115       0.50000000  2.86138574E-04      -1.84343466
  1 28 124       0.50000000       0.00215314      -1.71954561
  1 28 125       0.50000000       0.00234064      -1.67365442
  1 28 126       0.50000000       0.00240309      -1.78799024
  1 28 127       0.10000000       0.00235315      -2.71663853
  1 28 258       0.10000000       0.00394088      -3.72903792
  1 29 89       0.50000000       0.00232805      -2.28301936
  1 29 90       0.50000000  5.81172044E-04      -1.49524505
  1 29 115       0.50000000       0.00306702      -2.32300891
  1 29 116       0.50000000  1.55515390E-04      -1.58861097
  1 29 120       0.50000000  8.73995744E-04      -2.01465723
  1 29 122       0.50000000       0.00131940      -2.47541113
  1 29 123       0.50000000       0.00282654      -2.53425353
  1 29 124       0.50000000  3.27880409E-04      -1.60400142
  1 29 258       0.50000000  3.40793838E-04      -2.29503374
  1 29 259       0.10000000       0.00284987      -3.73037316
  1 29 265       0.10000000       0.00258371      -3.74151321
  1 29 266       0.10000000       0.00249718      -3.74307863
  1 29 267       0.10000000       0.00254735      -3.56337426
  1 29 268       0.10000000  9.94340247E-04      -3.44344669
  1 30 88       0.50000000       0.00231358      -2.11687356
  1 30 89       0.50000000       0.00160665      -1.19116066
  1 30 116       0.50000000       0.00316381      -2.36069018
  1 30 118       0.50000000       0.00177103      -1.71498894
  1 30 119       0.50000000       0.00251000      -1.60400391
  1 30 120       0.50000000       0.00150756      -1.60597157
  1 30 121       0.50000000       0.00234392      -1.60666618
  1 30 122       0.50000000       0.00118942      -2.34659454
  1 30 259       0.50000000  6.82287276E-04      -2.32701953
  1 30 260       0.10000000       0.00295621      -3.73548073
  1 30 261       0.10000000  5.33894119E-04      -3.73767419
  1 30 263       0.10000000       0.00222427      -3.73986305
  1 30 264       0.50000000       0.00298059      -2.14149293
  1 30 265       0.50000000  3.95735633E-06      -1.81924322
  1 31 86       0.50000000       0.00101952      -2.42764380
  1 31 87       0.50000000       0.00277413      -2.32894585
  1 31 88       0.50000000  3.78179337E-04      -2.11181302
  1 31 116       0.50000000  1.79043532E-04      -1.66576925
  1 31 117       0.50000000       0.00270199      -1.80646504
  1 31 118       0.50000000       0.00190539      -1.66655490
  1 31 261       0.10000000       0.00222629      -2.71477339
  1 31 262       0.50000000       0.00257882      -1.72669830
  1 31 263       0.50000000  1.97569795E-04      -1.66980195
  1 32 84       0.50000000       0.00107941      -2.43594852
  1 32 85       0.50000000       0.00250236      -2.38392040
  1 32 86       0.50000000       0.00176746      -2.39090879
  1 33 83       0.50000000  8.01285536E-04      -2.21767373
  1 33 84       0.50000000       0.00250661      -2.37810982
  1 34 83       0.50000000       0.00281221      -2.28637728
  1 35 82       0.50000000       0.00222532      -1.66337015
  1 35 83       0.50000000  4.43685163E-04      -1.56437086
  1 36 82       0.50000000       0.00242081      -1.92017361
  1 37 82       0.50000000       0.00239404      -1.21142008
  1 38 81       0.50000000       0.00290239      -2.27962218
  1 38 82       0.79639355  3.28317979E-04      -0.70360645
  1 39 79       0.50000000  4.24184214E-04      -2.24529792
  1 39 80       0.50000000       0.00298012      -1.69479174
  1 39 81       0.96329271  3.91811632E-04      -0.53670729
  1 40 78       0.50000000  5.44735645E-04      -2.27214398
  1 40 79       0.64476477       0.00291650      -0.85523523
  1 41 63       0.52912299  4.90790086E-04      -0.97087701
  1 41 64       1.37984260       0.00233824      -0.12015740
  1 41 65       1.53932467       0.00235418       0.03932467
  1 41 66       1.48355675       0.00248029      -0.01644325
  1 41 67       0.71707109       0.00246565      -0.78292891
  1 41 68       0.50000000       0.00235719      -1.54641906
  1 41 77       0.86280390       0.00131735      -0.63719610
  1 41 78       1.00478394       0.00236615      -0.49521606
  1 42 62       1.68789083       0.00221067       0.18789083
  1 42 63       2.29653667       0.00218149       0.79653667
  1 42 68       0.50000000  1.50539113E-04      -1.79448273
  1 42 69       0.50000000       0.00255578      -2.18737214
  1 42 77       1.88080146       0.00245890       0.38080146
  1 43 60       0.50000000  1.55625905E-04      -1.29360306
  1 43 61       2.30706429       0.00298744       0.80706429
  1 43 62       2.58048110  5.91234506E-04       1.08048110
  1 43 69       0.50000000       0.00174140      -2.29311072
  1 43 70       0.50000000       0.00142156      -2.32803817
  1 43 77       2.07170946       0.00255986       0.57170946
  1 44 59       0.81794764       0.00168335      -0.68205236
  1 44 60       0.55347261       0.00279413      -0.94652739
  1 44 70       0.50000000       0.00205454      -2.41977116
  1 44 71       0.50000000  9.54845928E-04      -2.11355137
  1 44 74       0.50000000       0.00117946      -2.22167698
  1 44 75       1.64776382       0.00236043       0.14776382
  1 44 76       1.18852356       0.00275249      -0.31147644
  1 44 77       1.74499005  7.81638650E-04       0.24499005
  1 45 56       0.50000000  7.37415946E-04      -1.07325360
  1 45 57       0.50000000       0.00244926      -1.28079863
  1 45 58       0.50000000       0.00245717      -1.14108740
  1 45 59       0.50000000  8.37105826E-04      -1.23605578
  1 45 71       0.50000000       0.00258976      -2.22521143
  1 45 72       0.50000000       0.00114080      -2.22362685
  1 45 73       0.50000000       0.00215394      -2.14404822
  1 45 74       0.50000000       0.00152181      -2.39197756
  1 46 56       0.50000000       0.00274041      -1.02485916
  1 46 72       0.50000000       0.00134031      -2.22635871
  1 46 73       0.50000000  7.06824644E-04      -2.30967478
  1 47 56       1.76580551       0.00236063       0.26580551
  1 48 54       2.15961681       0.00102204       0.65961681
  1 48 55       2.15839569       0.00248701       0.65839569
  1 48 56       3.07707446       0.00109764       1.57707446
  1 49 53       1.59516822       0.00130834       0.09516822
  1 49 54       3.55243296       0.00198487       2.05243296
  1 50 52       1.93229813  7.74240544E-04       0.43229813
  1 50 53       2.76847405       0.00233528       1.26847405
  1 51 51       2.30587481  9.07170111E-04       0.80587481
  1 51 52       3.15913917       0.00246038       1.65913917
  1 52 50       1.57714802       0.00114947       0.07714802
  1 52 51       2.84837883       0.00231856       1.34837883
  1 53 49       1.05117425       0.00154242      -0.44882575
  1 53 50       1.87502332       0.00191289       0.37502332
  1 54 48       1.74094723  8.66963925E-04       0.24094723
  1 54 49       1.05117425       0.00205018      -0.44882575
  1 55 48       1.50955769       0.00290183       0.00955769
  1 56 47       1.64842055       0.00289915       0.14842055
  1 56 48       1.79796315  2.24155976E-04       0.29796315
  1 57 27       3.76244446       0.00157798       2.26244446
  1 57 28       3.85850786       0.00301714       2.35850786
  1 57 29       3.41438791       0.00209800       1.91438791
  1 57 37       3.09106681  1.67638333E-04       1.59106681
  1 57 38       3.03299211       0.00185293       1.53299211
  1 57 46       1.78598693       0.00248422       0.28598693
  1 57 47       1.63842444  6.19536117E-04       0.13842444
  1 58 26       4.84555618       0.00113697       3.34555618
  1 58 27       4.95335623       0.00196351       3.45335623
  1 58 29       4.07283870  5.54131865E-04       2.57283870
  1 58 30       3.54533034       0.00258807       2.04533034
  1 58 31       3.56217016       0.00244172       2.06217016
  1 58 32       3.45376862  8.48768400E-04       1.95376862
  1 58 35       3.43051156       0.00102463       1.93051156
  1 58 36       3.57435901       0.00264627       2.07435901
  1 58 37       3.43671130       0.00234433       1.93671130
  1 58 38       3.32210048  6.21520481E-04       1.82210048
  1 58 39       2.81245902       0.00299954       1.31245902
  1 58 45       2.17425956       0.00232429       0.67425956
  1 58 46       2.24944273       0.00105240       0.74944273
  1 59 25       5.01109311  6.95962208E-04       3.51109311
  1 59 26       5.78763690       0.00240452       4.28763690
  1 59 32       4.40110823       0.00157950       2.90110823
  1 59 33       4.09423955       0.00233304       2.59423955
  1 59 34       3.87214952       0.00235257       2.37214952
  1 59 35       4.16880282       0.00135993       2.66880282
  1 59 39       3.29950773  3.09739035E-04       1.79950773
  1 59 40       3.14411750       0.00284517       1.64411750
  1 59 41       2.59310580       0.00242957       1.09310580
  1 59 42       2.39988635       0.00244431       0.89988635
  1 59 43       2.70363213       0.00253103       1.20363213
  1 59 44       3.18436024       0.00238460       1.68436024
  1 59 45       3.12045200  6.98871804E-04       1.62045200
  1 60 24       6.26334317  2.54952783E-04       4.76334317
  1 60 25       5.65471361       0.00284553       4.15471361
  1 61 24       7.13096831       0.00310048       5.63096831
  1 62 23       7.55726052       0.00291442       6.05726052
  1 62 24       7.48069020  1.86056641E-04       5.98069020
  1 63 23       7.28203754  5.18323264E-04       5.78203754
END period  1

