# File generated by Flopy version 3.4.3 on 05/25/2026 at 14:07:35.
BEGIN options
  SAVE_FLOWS
END options

BEGIN dimensions
  MAXBOUND  384
END dimensions

BEGIN period  1
  1 4 242  1.92028506E-04       1.83554788      -0.99980797
  1 4 243  6.30457339E-04       2.35527322      -0.99936954
  1 4 244       0.00112793       2.39991578      -0.99887207
  1 4 245       0.00142330       0.42345335      -0.99857670
  1 5 241       0.00161400       1.39942582      -0.99838600
  1 5 242       0.00190261       1.35925385      -0.99809739
  1 5 245       0.00226702       2.12406073      -0.99773298
  1 5 246       0.00275348       2.52593716      -0.99724652
  1 5 247       0.00320883       1.82655898      -0.99679117
  1 6 241       0.00366831       2.56547693      -0.99633169
  1 6 247       0.00402693       0.86252737      -0.99597307
  1 6 248       0.00442949       2.98538248      -0.99557051
  1 6 249       0.00475107       0.08853897      -0.99524893
  1 7 240       0.00492586       1.58227171      -0.99507414
  1 7 241       0.00521294       1.16183137      -0.99478706
  1 7 249       0.00567530       3.25775198      -0.99432470
  1 7 250       0.00601838       0.02160290      -0.99398162
  1 8 240       0.00633363       2.99178182      -0.99366637
  1 8 250       0.00696194       3.01409662      -0.99303806
  1 9 239       0.00757662       2.86146128      -0.99242338
  1 9 240       0.00790827       0.30872149      -0.99209173
  1 9 250       0.00801472       0.70880666      -0.99198528
  1 9 251       0.00830410       2.05730067      -0.99169590
  1 10 180       0.00871897       1.90824748      -0.99128103
  1 10 181       0.00919068       2.60074996      -0.99080932
  1 10 182       0.00977394       2.97443757      -0.99022606
  1 10 183       0.01012937       0.42299882      -0.98987063
  1 10 237       0.01021506       0.39617592      -0.98978494
  1 10 238       0.01056212       2.92125619      -0.98943788
  1 10 239       0.01092320       0.53021980      -0.98907680
  1 10 251       0.01121172       2.22761130      -0.98878828
  1 10 252       0.01151099       0.63303849      -0.98848901
  1 11 179       0.01182136       2.33375675      -0.98817864
  1 11 180       0.01217183       1.01628077      -0.98782817
  1 11 183       0.01253999       2.50286353      -0.98746001
  1 11 184       0.01296999       1.60736560      -0.98703001
  1 11 236       0.01326746       1.23607411      -0.98673254
  1 11 237       0.01366976       2.60934974      -0.98633024
  1 11 252       0.01424372       2.87702211      -0.98575628
  1 12 178       0.01478414       2.28871562      -0.98521586
  1 12 179       0.01514833       1.19244765      -0.98485167
  1 12 184       0.01539328       1.14892306      -0.98460672
  1 12 185       0.01579385       2.68009292      -0.98420615
  1 12 186       0.01623733       1.55897865      -0.98376267
  1 12 216       0.01651886       1.13210366      -0.98348114
  1 12 217       0.01688207       2.33967922      -0.98311793
  1 12 218       0.01737159       2.33954009      -0.98262841
  1 12 219       0.01786465       2.37352314      -0.98213535
  1 12 220       0.01835936       2.35519372      -0.98164064
  1 12 221       0.01885238       2.35747841      -0.98114762
  1 12 222       0.01934930       2.39247798      -0.98065070
  1 12 223       0.01985371       2.42896903      -0.98014629
  1 12 224       0.02016541       0.55050354      -0.97983459
  1 12 235       0.02047454       2.40438578      -0.97952546
  1 12 236       0.02089589       1.62318470      -0.97910411
  1 12 252       0.02115666       0.86946610      -0.97884334
  1 12 253       0.02144130       1.85129511      -0.97855870
  1 13 175       0.02176414       1.23463553      -0.97823586
  1 13 176       0.02214651       2.42041096      -0.97785349
  1 13 177       0.02266995       2.58299982      -0.97733005
  1 13 178       0.02302150       0.77735041      -0.97697850
  1 13 186       0.02320177       0.94577469      -0.97679823
  1 13 187       0.02355728       2.45249085      -0.97644272
  1 13 188       0.02406585       2.40878494      -0.97593415
  1 13 189       0.02456581       2.37016716      -0.97543419
  1 13 190       0.02506117       2.36486780      -0.97493883
  1 13 191       0.02555416       2.34748203      -0.97444584
  1 13 192       0.02604442       2.33876978      -0.97395558
  1 13 193       0.02653761       2.37553635      -0.97346239
  1 13 194       0.02703595       2.38789693      -0.97296405
  1 13 195       0.02753163       2.35024573      -0.97246837
  1 13 196       0.02802452       2.36114071      -0.97197548
  1 13 197       0.02852165       2.39073436      -0.97147835
  1 13 198       0.02901631       2.33758428      -0.97098369
  1 13 199       0.02950666       2.34961033      -0.97049334
  1 13 200       0.02999738       2.34102658      -0.97000262
  1 13 201       0.03048732       2.34212053      -0.96951268
  1 13 202       0.03097977       2.36508323      -0.96902023
  1 13 203       0.03147283       2.34796853      -0.96852717
  1 13 204       0.03196424       2.34924373      -0.96803576
  1 13 205       0.03245789       2.36947368      -0.96754211
  1 13 206       0.03279033       0.80818079      -0.96720967
  1 13 212       0.03304808       1.65564819      -0.96695192
  1 13 213       0.03347040       2.38113589      -0.96652960
  1 13 214       0.03398255       2.51434057      -0.96601745
  1 13 215       0.03449677       2.40095092      -0.96550323
  1 13 216       0.03488291       1.29012174      -0.96511709
  1 13 224       0.03523368       2.06275986      -0.96476632
  1 13 225       0.03571030       2.49314237      -0.96428970
  1 13 226       0.03622554       2.43187356      -0.96377446
  1 13 227       0.03660070       1.15423028      -0.96339930
  1 13 233       0.03684297       1.16153965      -0.96315703
  1 13 234       0.03726576       2.87974985      -0.96273424
  1 13 235       0.03763771       0.67567609      -0.96236229
  1 13 253       0.03798130       2.60853728      -0.96201870
  1 13 254       0.03826874       0.13903924      -0.96173126
  1 14 170       0.03847941       1.87475320      -0.96152059
  1 14 171       0.03892438       2.37853762      -0.96107562
  1 14 172       0.03942134       2.37181897      -0.96057866
  1 14 173       0.03991797       2.37533522      -0.96008203
  1 14 174       0.04041227       2.34947911      -0.95958773
  1 14 175       0.04078723       1.23469231      -0.95921277
  1 14 206       0.04108601       1.62127279      -0.95891399
  1 14 207       0.04151060       2.43726148      -0.95848940
  1 14 208       0.04201132       2.34893326      -0.95798868
  1 14 209       0.04250536       2.37354649      -0.95749464
  1 14 210       0.04299882       2.34326858      -0.95700118
  1 14 211       0.04349468       2.39655463      -0.95650532
  1 14 212       0.04382426       0.75374053      -0.95617574
  1 14 227       0.04403563       1.26675416      -0.95596437
  1 14 228       0.04441904       2.39813996      -0.95558096
  1 14 229       0.04492756       2.46267767      -0.95507244
  1 14 230       0.04543438       2.38187453      -0.95456562
  1 14 231       0.04593167       2.37153755      -0.95406833
  1 14 232       0.04646754       2.75073631      -0.95353246
  1 14 233       0.04694160       1.78063098      -0.95305840
  1 14 254       0.04744594       3.04026021      -0.95255406
  1 15 165       0.04797057       1.97450130      -0.95202943
  1 15 166       0.04843114       2.42792355      -0.95156886
  1 15 167       0.04893858       2.42257493      -0.95106142
  1 15 168       0.04944171       2.38669355      -0.95055829
  1 15 169       0.04994504       2.42452792      -0.95005496
  1 15 170       0.05025577       0.54570637      -0.94974423
  1 15 254       0.05038602       0.69927508      -0.94961398
  1 15 255       0.05071419       2.43757921      -0.94928581
  1 16 159       0.05106766       0.94114259      -0.94893234
  1 16 160       0.05141549       2.38365531      -0.94858451
  1 16 161       0.05192117       2.45001561      -0.94807883
  1 16 162       0.05242812       2.39581310      -0.94757188
  1 16 163       0.05293875       2.48519506      -0.94706125
  1 16 164       0.05344844       2.38675051      -0.94655156
  1 16 165       0.05374029       0.40301266      -0.94625971
  1 16 255       0.05388994       1.02740038      -0.94611006
  1 16 256       0.05426118       2.52121268      -0.94573882
  1 17 155       0.05477658       2.40531809      -0.94522342
  1 17 156       0.05527638       2.37214222      -0.94472362
  1 17 157       0.05577751       2.41807011      -0.94422249
  1 17 158       0.05628615       2.44379046      -0.94371385
  1 17 159       0.05669025       1.41898217      -0.94330975
  1 17 256       0.05709896       2.48775943      -0.94290104
  1 18 149       0.05744465       0.81650945      -0.94255535
  1 18 150       0.05778813       2.46676923      -0.94221187
  1 18 151       0.05829269       2.35618333      -0.94170731
  1 18 152       0.05878730       2.37168163      -0.94121270
  1 18 153       0.05928435       2.37948598      -0.94071565
  1 18 154       0.05978187       2.37613682      -0.94021813
  1 18 155       0.06003543       0.04759687      -0.93996457
  1 18 256       0.06028477       2.33574605      -0.93971523
  1 19 145       0.06071132       1.74158551      -0.93928868
  1 19 146       0.06113563       2.31423320      -0.93886437
  1 19 147       0.06163083       2.41923445      -0.93836917
  1 19 148       0.06213358       2.38644664      -0.93786642
  1 19 149       0.06254897       1.58409070      -0.93745103
  1 19 256       0.06295924       2.33756307      -0.93704076
  1 20 141       0.06332011       1.11196971      -0.93667989
  1 20 142       0.06369224       2.44507548      -0.93630776
  1 20 143       0.06420298       2.43696133      -0.93579702
  1 20 144       0.06472029       2.50784657      -0.93527971
  1 20 145       0.06507794       0.91089429      -0.93492206
  1 20 146       0.06524457       0.68186021      -0.93475543
  1 20 256       0.06556006       2.33381203      -0.93443994
  1 21 138       0.06593661       1.26551877      -0.93406339
  1 21 139       0.06632525       2.44935492      -0.93367475
  1 21 140       0.06685445       2.60912109      -0.93314555
  1 21 141       0.06727123       1.37483085      -0.93272877
  1 21 256       0.06765994       2.34070083      -0.93234006
  1 22 130       0.06805327       1.41905985      -0.93194673
  1 22 131       0.06835167       1.43324996      -0.93164833
  1 22 135       0.06873902       2.26926173      -0.93126098
  1 22 136       0.06923086       2.43215955      -0.93076914
  1 22 137       0.06974141       2.44804485      -0.93025859
  1 22 138       0.07012794       1.24666094      -0.92987206
  1 22 256       0.07051583       2.46105261      -0.92948417
  1 23 98       0.07099180       2.08861911      -0.92900820
  1 23 99       0.07146506       2.43520691      -0.92853494
  1 23 100       0.07197017       2.39294465      -0.92802983
  1 23 101       0.07246672       2.35344465      -0.92753328
  1 23 102       0.07296962       2.45362245      -0.92703038
  1 23 103       0.07347608       2.38749574      -0.92652392
  1 23 104       0.07398906       2.51593050      -0.92601094
  1 23 105       0.07439612       1.37510645      -0.92560388
  1 23 129       0.07474539       1.96342512      -0.92525461
  1 23 130       0.07507514       1.18859498      -0.92492486
  1 23 131       0.07531920       1.14434667      -0.92468080
  1 23 132       0.07570446       2.53824254      -0.92429554
  1 23 133       0.07622433       2.43096880      -0.92377567
  1 23 134       0.07674500       2.54599206      -0.92325500
  1 23 135       0.07703767       0.25157582      -0.92296233
  1 23 256       0.07721510       1.44445817      -0.92278490
  1 23 257       0.07748230       1.10962413      -0.92251770
  1 24 96       0.07771461       1.11097464      -0.92228539
  1 24 97       0.07813006       2.86015377      -0.92186994
  1 24 98       0.07850864       0.75865387      -0.92149136
  1 24 105       0.07877882       1.82390917      -0.92122118
  1 24 106       0.07921657       2.36041372      -0.92078343
  1 24 107       0.07970790       2.33601528      -0.92029210
  1 24 108       0.08020023       2.37008074      -0.91979977
  1 24 109       0.08062492       1.68937648      -0.91937508
  1 24 129       0.08105455       2.41741551      -0.91894545
  1 24 257       0.08156004       2.41440653      -0.91843996
  1 25 94       0.08199352       1.72907533      -0.91800648
  1 25 95       0.08243640       2.50428530      -0.91756360
  1 25 96       0.08284080       1.36123296      -0.91715920
  1 25 109       0.08306849       0.81521503      -0.91693151
  1 25 110       0.08341140       2.46259932      -0.91658860
  1 25 111       0.08392768       2.47235119      -0.91607232
  1 25 112       0.08430276       1.11297755      -0.91569724
  1 25 129       0.08466805       2.37870592      -0.91533195
  1 25 257       0.08516749       2.39529162      -0.91483251
  1 26 93       0.08552104       0.98423116      -0.91447896
  1 26 94       0.08581438       1.81965945      -0.91418562
  1 26 112       0.08618814       1.75304302      -0.91381186
  1 26 113       0.08651460       1.36752553      -0.91348540
  1 26 128       0.08679067       1.27136261      -0.91320933
  1 26 129       0.08707444       1.44112529      -0.91292556
  1 26 257       0.08746712       2.31238562      -0.91253288
  1 26 258       0.08772233       0.12705331      -0.91227767
  1 27 92       0.08791738       1.73736892      -0.91208262
  1 27 93       0.08837648       2.65104919      -0.91162352
  1 27 113       0.08892449       2.58723347      -0.91107551
  1 27 127       0.08924499       0.47633988      -0.91075501
  1 27 128       0.08957590       2.68672850      -0.91042410
  1 27 258       0.09011952       2.50964588      -0.90988048
  1 28 90       0.09064517       2.51486006      -0.90935483
  1 28 91       0.09116791       2.48189032      -0.90883209
  1 28 92       0.09149992       0.69173104      -0.90850008
  1 28 113       0.09167353       0.96768078      -0.90832647
  1 28 114       0.09206192       2.74490948      -0.90793808
  1 28 115       0.09237902       0.28613857      -0.90762098
  1 28 124       0.09263421       2.15313817      -0.90736579
  1 28 125       0.09310433       2.34063776      -0.90689567
  1 28 126       0.09360061       2.40308874      -0.90639939
  1 28 127       0.09409819       2.35315452      -0.90590181
  1 28 258       0.09475665       3.94087924      -0.90524335
  1 29 89       0.09541248       2.32804859      -0.90458752
  1 29 90       0.09571683       0.58117204      -0.90428317
  1 29 115       0.09609849       3.06702066      -0.90390151
  1 29 116       0.09643562       0.15551539      -0.90356438
  1 29 120       0.09654333       0.87399574      -0.90345667
  1 29 122       0.09677279       1.31939863      -0.90322721
  1 29 123       0.09720653       2.82654317      -0.90279347
  1 29 124       0.09753653       0.32788041      -0.90246347
  1 29 258       0.09760648       0.34079384      -0.90239352
  1 29 259       0.09794028       2.84986764      -0.90205972
  1 29 265       0.09850872       2.58371163      -0.90149128
  1 29 266       0.09904027       2.49717815      -0.90095973
  1 29 267       0.09956801       2.54735206      -0.90043199
  1 29 268       0.09993853       0.99434025      -0.90006147
  1 30 88       0.10028459       2.31358168      -0.89971541
  1 30 89       0.10069471       1.60665383      -0.89930529
  1 30 116       0.10119378       3.16380880      -0.89880622
  1 30 118       0.10171005       1.77103100      -0.89828995
  1 30 119       0.10215791       2.50999808      -0.89784209
  1 30 120       0.10257821       1.50756195      -0.89742179
  1 30 121       0.10298114       2.34392325      -0.89701886
  1 30 122       0.10335079       1.18942379      -0.89664921
  1 30 259       0.10354660       0.68228728      -0.89645340
  1 30 260       0.10392725       2.95620831      -0.89607275
  1 30 261       0.10429237       0.53389412      -0.89570763
  1 30 263       0.10458092       2.22426575      -0.89541908
  1 30 264       0.10512543       2.98058866      -0.89487457
  1 30 265       0.10543766       0.00395736      -0.89456234
  1 31 86       0.10554474       1.01952396      -0.89445526
  1 31 87       0.10594162       2.77413194      -0.89405838
  1 31 88       0.10627140       0.37817934      -0.89372860
  1 31 116       0.10632969       0.17904353      -0.89367031
  1 31 117       0.10663110       2.70199436      -0.89336890
  1 31 118       0.10711311       1.90538966      -0.89288689
  1 31 261       0.10754535       2.22628952      -0.89245465
  1 31 262       0.10804804       2.57881836      -0.89195196
  1 31 263       0.10833850       0.19756980      -0.89166150
  1 32 84       0.10847209       1.07940792      -0.89152791
  1 32 85       0.10884680       2.50235695      -0.89115320
  1 32 86       0.10929350       1.76746215      -0.89070650
  1 33 83       0.10956223       0.80128554      -0.89043777
  1 33 84       0.10990829       2.50660830      -0.89009171
  1 34 83       0.11046472       2.81221490      -0.88953528
  1 35 82       0.11099173       2.22531754      -0.88900827
  1 35 83       0.11127096       0.44368516      -0.88872904
  1 36 82       0.11157063       2.42081113      -0.88842937
  1 37 82       0.11207434       2.39403851      -0.88792566
  1 38 81       0.11262843       2.90238997      -0.88737157
  1 38 82       0.11296642       0.32831798      -0.88703358
  1 39 79       0.11304514       0.42418421      -0.88695486
  1 39 80       0.11340129       2.98011908      -0.88659871
  1 39 81       0.11375405       0.39181163      -0.88624595
  1 40 78       0.11385203       0.54473565      -0.88614797
  1 40 79       0.11421413       2.91650060      -0.88578587
  1 41 63       0.11457059       0.49079009      -0.88542941
  1 41 64       0.11486655       2.33824200      -0.88513345
  1 41 65       0.11535746       2.35418467      -0.88464254
  1 41 66       0.11586322       2.48029228      -0.88413678
  1 41 67       0.11638065       2.46564677      -0.88361935
  1 41 68       0.11688520       2.35718913      -0.88311480
  1 41 77       0.11726961       1.31734956      -0.88273039
  1 41 78       0.11765497       2.36615158      -0.88234503
  1 42 62       0.11813378       2.21066553      -0.88186622
  1 42 63       0.11859327       2.18149129      -0.88140673
  1 42 68       0.11883724       0.15053911      -0.88116276
  1 42 69       0.11912037       2.55578071      -0.88087963
  1 42 77       0.11964498       2.45890404      -0.88035502
  1 43 60       0.11991851       0.15562590      -0.88008149
  1 43 61       0.12024732       2.98744164      -0.87975268
  1 43 62       0.12062171       0.59123451      -0.87937829
  1 43 69       0.12086574       1.74139742      -0.87913426
  1 43 70       0.12119664       1.42155679      -0.87880336
  1 43 77       0.12161316       2.55986393      -0.87838684
  1 44 59       0.12205707       1.68334976      -0.87794293
  1 44 60       0.12252549       2.79412924      -0.87747451
  1 44 70       0.12303274       2.05454350      -0.87696726
  1 44 71       0.12334757       0.95484593      -0.87665243
  1 44 74       0.12357086       1.17946419      -0.87642914
  1 44 75       0.12394119       2.36042639      -0.87605881
  1 44 76       0.12447608       2.75249098      -0.87552392
  1 44 77       0.12484581       0.78163865      -0.87515419
  1 45 56       0.12500473       0.73741595      -0.87499527
  1 45 57       0.12533811       2.44926306      -0.87466189
  1 45 58       0.12585140       2.45717019      -0.87414860
  1 45 59       0.12619604       0.83710583      -0.87380396
  1 45 71       0.12655455       2.58976500      -0.87344545
  1 45 72       0.12694482       1.14079751      -0.87305518
  1 45 73       0.12728951       2.15393672      -0.87271049
  1 45 74       0.12767405       1.52180541      -0.87232595
  1 46 56       0.12811995       2.74040841      -0.87188005
  1 46 72       0.12854686       1.34030543      -0.87145314
  1 46 73       0.12876102       0.70682464      -0.87123898
  1 47 56       0.12908193       2.36063128      -0.87091807
  1 48 54       0.12943581       1.02203679      -0.87056419
  1 48 55       0.12980291       2.48700819      -0.87019709
  1 48 56       0.13017793       1.09764011      -0.86982207
  1 49 53       0.13042963       1.30833781      -0.86957037
  1 49 54       0.13077416       1.98487230      -0.86922584
  1 50 52       0.13106280       0.77424054      -0.86893720
  1 50 53       0.13138811       2.33528260      -0.86861189
  1 51 51       0.13172733       0.90717011      -0.86827267
  1 51 52       0.13207963       2.46037892      -0.86792037
  1 52 50       0.13245728       1.14946717      -0.86754272
  1 52 51       0.13282009       2.31856034      -0.86717991
  1 53 49       0.13322401       1.54241544      -0.86677599
  1 53 50       0.13358549       1.91288987      -0.86641451
  1 54 48       0.13387631       0.86696392      -0.86612369
  1 54 49       0.13418149       2.05017941      -0.86581851
  1 55 48       0.13469955       2.90183285      -0.86530045
  1 56 47       0.13530643       2.89915323      -0.86469357
  1 56 48       0.13563318       0.22415598      -0.86436682
  1 57 27       0.13582171       1.57798106      -0.86417829
  1 57 28       0.13630244       3.01714007      -0.86369756
  1 57 29       0.13683757       2.09799507      -0.86316243
  1 57 37       0.13707459       0.16763833      -0.86292541
  1 57 38       0.13728598       1.85293469      -0.86271402
  1 57 46       0.13773971       2.48421818      -0.86226029
  1 57 47       0.13806442       0.61953612      -0.86193558
  1 58 26       0.13824818       1.13697163      -0.86175182
  1 58 27       0.13857254       1.96350619      -0.86142746
  1 58 29       0.13883592       0.55413186      -0.86116408
  1 58 30       0.13916465       2.58806953      -0.86083535
  1 58 31       0.13969085       2.44171754      -0.86030915
  1 58 32       0.14003509       0.84876840      -0.85996491
  1 58 35       0.14023108       1.02463107      -0.85976892
  1 58 36       0.14061511       2.64627316      -0.85938489
  1 58 37       0.14113721       2.34432806      -0.85886279
  1 58 38       0.14144749       0.62152048      -0.85855251
  1 58 39       0.14182631       2.99953923      -0.85817369
  1 58 45       0.14238327       2.32428682      -0.85761673
  1 58 46       0.14273653       1.05240393      -0.85726347
  1 59 25       0.14291944       0.69596221      -0.85708056
  1 59 26       0.14324380       2.40451562      -0.85675620
  1 59 32       0.14366059       1.57950481      -0.85633941
  1 59 33       0.14406991       2.33303803      -0.85593009
  1 59 34       0.14456010       2.35257054      -0.85543990
  1 59 35       0.14494849       1.35993156      -0.85505151
  1 59 39       0.14512316       0.30973903      -0.85487684
  1 59 40       0.14545322       2.84517257      -0.85454678
  1 59 41       0.14600504       2.42956714      -0.85399496
  1 59 42       0.14651493       2.44431282      -0.85348507
  1 59 43       0.14703543       2.53103175      -0.85296457
  1 59 44       0.14754969       2.38459608      -0.85245031
  1 59 45       0.14787227       0.69887180      -0.85212773
  1 60 24       0.14797206       0.25495278      -0.85202794
  1 60 25       0.14829642       2.84552504      -0.85170358
  1 61 24       0.14891847       3.10047782      -0.85108153
  1 62 23       0.14954772       2.91442118      -0.85045228
  1 62 24       0.14987209       0.18605664      -0.85012791
  1 63 23       0.14994577       0.51832326      -0.85005423
END period  1

