# File generated by Flopy version 3.4.3 on 09/06/2024 at 11:33:58.
BEGIN options
END options

BEGIN timing
  TDIS6  Bowers_beach.tdis
END timing

BEGIN models
  gwf6  Bowers_beach.nam  Bowers_beach
END models

BEGIN exchanges
END exchanges

BEGIN solutiongroup  1
  ims6  Bowers_beach.ims  Bowers_beach
END solutiongroup  1

